/*--------------------------------*- C++ -*----------------------------------*\
  =========                 |
  \\      /  F ield         | OpenFOAM: The Open Source CFD Toolbox
   \\    /   O peration     | Website:  https://openfoam.org
    \\  /    A nd           | Version:  13
     \\/     M anipulation  |
\*---------------------------------------------------------------------------*/
FoamFile
{
    format      ascii;
    class       featureEdgeMesh;
    location    "constant/triSurface";
    object      propellerTip.eMesh;
}
// * * * * * * * * * * * * * * * * * * * * * * * * * * * * * * * * * * * * * //


// points:

6494
(
(0.0294692 -0.00431328 -0.00729734)
(0.0302029 -0.00462383 -0.0073497)
(0.1143 -0.00501143 -0.00355513)
(0.113574 -0.00559506 -0.00370369)
(0.0277871 -0.00358599 -0.0071061)
(0.114263 -0.00505823 -0.0035578)
(0.113923 -0.00539037 -0.00361508)
(0.113978 -0.0053475 -0.00360305)
(0.114032 -0.00530142 -0.00359208)
(0.0857262 -0.00909248 -0.00441567)
(0.0869712 -0.00892038 -0.00436472)
(0.11367 -0.00555075 -0.0036746)
(0.113741 -0.0055129 -0.00365588)
(0.0680661 -0.0109292 -0.00546968)
(0.071469 -0.010718 -0.00523708)
(0.0741023 -0.0104879 -0.00505286)
(0.0776974 -0.010114 -0.00482648)
(0.0826001 -0.00949737 -0.00453926)
(0.113238 -0.00570875 -0.00379152)
(0.113409 -0.00565874 -0.00374566)
(0.114156 -0.00518058 -0.00357116)
(0.114209 -0.00512221 -0.0035642)
(0.114236 -0.00508937 -0.00356138)
(0.0291921 -0.00419075 -0.00727117)
(0.0306152 -0.00479259 -0.00736862)
(0.0318296 -0.00527546 -0.00742221)
(0.0524659 -0.0105182 -0.00662005)
(0.0576974 -0.0109502 -0.00624266)
(0.0681009 -0.0109321 -0.00547427)
(0.0708499 -0.0107649 -0.00528741)
(0.0741371 -0.0104892 -0.00505723)
(0.0748549 -0.0104204 -0.005013)
(0.0776688 -0.0101202 -0.00483418)
(0.0854091 -0.00913465 -0.00441458)
(0.0854257 -0.00913386 -0.00442545)
(0.087384 -0.00885777 -0.00433025)
(0.0874488 -0.00885406 -0.00433475)
(0.0877071 -0.00881762 -0.00432599)
(0.0879575 -0.00878168 -0.00431574)
(0.0543084 -0.0107032 -0.00650101)
(0.105622 -0.00646817 -0.00405289)
(0.0552369 -0.0107883 -0.00641766)
(0.0552908 -0.0107928 -0.00641615)
(0.0576558 -0.0109481 -0.00624668)
(0.057739 -0.0109523 -0.00623865)
(0.0602211 -0.0110461 -0.00605212)
(0.0625113 -0.0110764 -0.00588458)
(0.0709291 -0.010759 -0.00528411)
(0.0750305 -0.0104033 -0.00500465)
(0.0877173 -0.00881607 -0.00433097)
(0.0911758 -0.00832442 -0.00420956)
(0.0916634 -0.00825488 -0.00419842)
(0.0544985 -0.0107084 -0.0064892)
(0.0937169 -0.00796488 -0.0041362)
(0.0940068 -0.00792424 -0.00413009)
(0.0892611 -0.00859368 -0.00426482)
(0.0550201 -0.0107449 -0.00644857)
(0.0550965 -0.010754 -0.00644487)
(0.0962074 -0.00761775 -0.00407742)
(0.0974783 -0.00744783 -0.00406601)
(0.0626598 -0.0110376 -0.00588502)
(0.111148 -0.0059656 -0.00408347)
(0.111403 -0.00594752 -0.00406457)
(0.111443 -0.00593714 -0.00407314)
(0.0848367 -0.00921233 -0.00444704)
(0.0962205 -0.00761783 -0.00408411)
(0.0709827 -0.0107375 -0.00530084)
(0.11167 -0.00592522 -0.00404786)
(0.0741213 -0.0104684 -0.00508915)
(0.0781193 -0.0100464 -0.00483612)
(0.0826033 -0.00948138 -0.00457706)
(0.0875537 -0.00882196 -0.00435951)
(0.0875864 -0.00881145 -0.00435804)
(0.0875983 -0.00881563 -0.00435775)
(0.0383879 -0.0075704 -0.00743221)
(0.10006 -0.00711118 -0.00404005)
(0.0780881 -0.0100623 -0.00483505)
(0.0781373 -0.0100566 -0.00483206)
(0.0875436 -0.00882943 -0.00435663)
(0.0939724 -0.00791707 -0.0041525)
(0.0977755 -0.00739803 -0.00407769)
(0.047677 -0.00981155 -0.00695601)
(0.049564 -0.0101209 -0.00683203)
(0.0571196 -0.0109047 -0.00630227)
(0.0596296 -0.011016 -0.00611932)
(0.079608 -0.00988074 -0.0047438)
(0.0977567 -0.00739011 -0.00407798)
(-0.0294692 0.00431328 -0.00729734)
(-0.0302029 0.00462383 -0.0073497)
(-0.1143 0.00501143 -0.00355513)
(-0.113574 0.00559506 -0.00370369)
(-0.0277871 0.00358599 -0.0071061)
(-0.114263 0.00505823 -0.0035578)
(-0.113923 0.00539037 -0.00361508)
(-0.113978 0.0053475 -0.00360305)
(-0.114032 0.00530142 -0.00359208)
(-0.0857262 0.00909248 -0.00441567)
(-0.0869712 0.00892038 -0.00436472)
(-0.11367 0.00555075 -0.0036746)
(-0.113741 0.0055129 -0.00365588)
(-0.0680661 0.0109292 -0.00546968)
(-0.071469 0.010718 -0.00523708)
(-0.0741023 0.0104879 -0.00505286)
(-0.0776974 0.010114 -0.00482648)
(-0.0826001 0.00949737 -0.00453926)
(-0.113238 0.00570875 -0.00379152)
(-0.113409 0.00565874 -0.00374566)
(-0.114156 0.00518058 -0.00357116)
(-0.114209 0.00512221 -0.0035642)
(-0.114236 0.00508937 -0.00356138)
(-0.0291921 0.00419075 -0.00727117)
(-0.0526685 0.0105377 -0.00659138)
(-0.0681009 0.0109321 -0.00547427)
(-0.0708499 0.0107649 -0.00528741)
(-0.0741371 0.0104892 -0.00505723)
(-0.0748549 0.0104204 -0.005013)
(-0.0776688 0.0101202 -0.00483418)
(-0.0854091 0.00913465 -0.00441458)
(-0.0854257 0.00913386 -0.00442545)
(-0.087384 0.00885777 -0.00433025)
(-0.0874488 0.00885406 -0.00433475)
(-0.0877071 0.00881762 -0.00432599)
(-0.0879575 0.00878168 -0.00431574)
(-0.0543084 0.0107032 -0.00650101)
(-0.105622 0.00646817 -0.00405289)
(-0.0306069 0.00478888 -0.00736939)
(-0.0549565 0.0107654 -0.00643977)
(-0.0623665 0.0110763 -0.00589808)
(-0.0709291 0.010759 -0.00528411)
(-0.0750305 0.0104033 -0.00500465)
(-0.0875927 0.00883336 -0.00432859)
(-0.0877173 0.00881607 -0.00433097)
(-0.0544985 0.0107084 -0.0064892)
(-0.093339 0.0080157 -0.00414101)
(-0.0933592 0.00801542 -0.00414855)
(-0.0937169 0.00796488 -0.0041362)
(-0.109084 0.00612157 -0.00412322)
(-0.109745 0.00606136 -0.00412938)
(-0.0886649 0.00867879 -0.00428601)
(-0.091785 0.00823762 -0.00418737)
(-0.0918131 0.00823377 -0.00419375)
(-0.0918288 0.0082319 -0.0041878)
(-0.0919164 0.0082195 -0.00418922)
(-0.0931206 0.00804904 -0.00415171)
(-0.0550201 0.010745 -0.00644868)
(-0.0550965 0.0107541 -0.00644496)
(-0.111148 0.0059656 -0.00408347)
(-0.111403 0.00594752 -0.00406457)
(-0.0848367 0.00921233 -0.00444704)
(-0.11167 0.00592522 -0.00404786)
(-0.0741213 0.0104686 -0.00508921)
(-0.0781193 0.0100466 -0.00483617)
(-0.0826033 0.00948155 -0.0045771)
(-0.0875537 0.00882208 -0.00435949)
(-0.0875864 0.00881162 -0.00435808)
(-0.111465 0.00592959 -0.00407083)
(-0.058069 0.0109681 -0.0062113)
(-0.0593341 0.0110198 -0.00611823)
(-0.0383879 0.00757044 -0.00743223)
(-0.047297 0.00974804 -0.00698089)
(-0.0943634 0.00787348 -0.00411836)
(-0.0944437 0.00786262 -0.00411743)
(-0.097231 0.00748065 -0.00406245)
(-0.0973113 0.00747024 -0.00406219)
(-0.10006 0.00711118 -0.00404005)
(-0.0780881 0.0100623 -0.00483499)
(-0.0781373 0.0100567 -0.00483201)
(-0.0826906 0.0094758 -0.00457259)
(-0.0875436 0.0088295 -0.00435657)
(-0.0876043 0.00881787 -0.00435638)
(-0.0939316 0.0079079 -0.004152)
(-0.0939724 0.00791714 -0.00415246)
(-0.0977755 0.0073981 -0.00407765)
(-0.101715 0.0068839 -0.00405305)
(-0.101737 0.00689363 -0.00405397)
(-0.047677 0.00981164 -0.00695603)
(-0.0495683 0.0101289 -0.0068316)
(-0.0571196 0.0109048 -0.00630226)
(-0.079608 0.00988081 -0.00474374)
(-0.0859095 0.00905756 -0.00442314)
(-0.0977567 0.00739028 -0.00407804)
(0.10301 -0.00675136 -0.00404427)
(0.10853 -0.00617562 -0.0041094)
(-0.109341 0.00610198 -0.0041198)
(-0.10301 0.00675136 -0.00404427)
(-0.10853 0.00617562 -0.0041094)
(0.0281335 -0.00372129 -0.00716545)
(0.0277653 -0.00357747 -0.00712184)
(0.028626 -0.00393372 -0.00721922)
(0.0270321 -0.00334015 -0.00702701)
(0.1143 -0.00384067 -0.0032053)
(0.11396 -0.00536331 -0.00360503)
(0.112996 -0.00576116 -0.00385621)
(0.113492 -0.00562842 -0.00372664)
(0.113647 -0.0055617 -0.00368363)
(0.113788 -0.00548428 -0.00364597)
(0.113905 -0.00540529 -0.00361724)
(0.114014 -0.00531817 -0.00359384)
(0.114068 -0.00526973 -0.00358378)
(0.0266672 -0.00324602 -0.00697595)
(0.0326323 -0.0055865 -0.00745273)
(0.114226 -0.00510297 -0.00356126)
(0.1143 -0.00424828 -0.00332456)
(0.113278 -0.00569721 -0.00378545)
(0.0526691 -0.0105381 -0.00661613)
(0.0626584 -0.011073 -0.00589046)
(0.0652966 -0.0110375 -0.00569791)
(0.0680763 -0.0109309 -0.005497)
(0.0710161 -0.010749 -0.00528844)
(0.0348927 -0.00642072 -0.00748606)
(0.0741126 -0.0104889 -0.00507932)
(0.0781112 -0.010066 -0.00482491)
(0.0825926 -0.00949999 -0.00456478)
(0.0875725 -0.00883165 -0.00434687)
(0.11316 -0.00572683 -0.00381635)
(0.11339 -0.00566384 -0.00375478)
(0.113718 -0.00552487 -0.00366433)
(0.11385 -0.00544428 -0.00363039)
(0.114121 -0.00521782 -0.00357493)
(0.112472 -0.00584268 -0.00395601)
(0.0480484 -0.00988599 -0.00693196)
(0.0503308 -0.0102429 -0.00677908)
(0.0551093 -0.0107748 -0.00644301)
(0.0253686 -0.00303611 -0.0067747)
(0.0681255 -0.0109198 -0.0054593)
(0.0741617 -0.0104761 -0.00504333)
(0.0742457 -0.0104639 -0.00503445)
(0.0413094 -0.00841081 -0.00732225)
(0.0435229 -0.00896528 -0.00720809)
(0.0457868 -0.00946173 -0.00707527)
(0.0874109 -0.00885564 -0.00433072)
(0.0939319 -0.00793055 -0.00414397)
(0.101718 -0.00690213 -0.004046)
(0.112067 -0.00588823 -0.00401019)
(0.112766 -0.00580104 -0.003905)
(0.114174 -0.00516229 -0.00356739)
(0.0244799 -0.00300024 -0.00662049)
(0.0369463 -0.00711891 -0.00746754)
(0.0391056 -0.00779066 -0.00741139)
(0.0575146 -0.0109372 -0.00626956)
(0.0576809 -0.0109479 -0.00625248)
(0.0600447 -0.0110385 -0.00608357)
(0.0877791 -0.00880493 -0.00433447)
(0.0977554 -0.00740771 -0.00406917)
(0.105601 -0.00646761 -0.00406176)
(0.0220247 -0.00331582 -0.0061349)
(0.023107 -0.00310551 -0.00635883)
(0.0235961 -0.00304649 -0.0064551)
(0.0240374 -0.00301347 -0.00653912)
(0.0200266 -0.00396435 -0.00568876)
(0.0207621 -0.00368926 -0.00585726)
(0.104951 -0.00653726 -0.00405312)
(0.109105 -0.00612155 -0.00412001)
(0.110494 -0.0060109 -0.00411177)
(0.111463 -0.00594095 -0.0040657)
(0.106773 -0.00634924 -0.00407442)
(0.0812092 -0.00967863 -0.00461369)
(0.0567157 -0.0108854 -0.00633021)
(0.0592046 -0.0110068 -0.00614897)
(0.107948 -0.00622884 -0.00410351)
(0.0476727 -0.0098179 -0.00695672)
(0.0495683 -0.0101288 -0.0068316)
(0.0563163 -0.0108569 -0.00635967)
(0.0571151 -0.0109121 -0.00630019)
(0.0587845 -0.0109884 -0.00618077)
(0.0596247 -0.0110235 -0.00611657)
(0.0609152 -0.0110538 -0.00602201)
(0.0635371 -0.0110647 -0.00582944)
(0.0662226 -0.0110055 -0.00563459)
(0.0690557 -0.010874 -0.0054309)
(0.0720477 -0.0106662 -0.00522219)
(0.0754446 -0.0103539 -0.00499711)
(0.0774438 -0.0101388 -0.00487089)
(0.0788596 -0.00997485 -0.00478486)
(0.0811005 -0.0096933 -0.00465234)
(0.0842512 -0.00928087 -0.00449055)
(0.0867409 -0.00894579 -0.0043853)
(0.0876038 -0.00882401 -0.00435073)
(0.0896905 -0.00852694 -0.00427393)
(0.0928701 -0.00807752 -0.00417652)
(-0.0281335 0.00372129 -0.00716545)
(-0.0277653 0.00357747 -0.00712184)
(-0.028626 0.00393372 -0.00721922)
(-0.0270321 0.00334015 -0.00702701)
(-0.114148 0.00354274 -0.0030836)
(-0.11396 0.00536331 -0.00360503)
(-0.1143 0.00386241 -0.0032149)
(-0.1143 0.00393958 -0.00324117)
(-0.114097 0.00353305 -0.00307808)
(-0.112996 0.00576116 -0.00385621)
(-0.113492 0.00562842 -0.00372664)
(-0.113647 0.0055617 -0.00368363)
(-0.113788 0.00548428 -0.00364597)
(-0.114014 0.00531817 -0.00359384)
(-0.114068 0.00526973 -0.00358378)
(-0.0266672 0.00324602 -0.00697595)
(-0.0326323 0.0055865 -0.00745273)
(-0.114226 0.00510297 -0.00356126)
(-0.113278 0.00569721 -0.00378545)
(-0.113905 0.00540529 -0.00361724)
(-0.0626584 0.011073 -0.00589046)
(-0.0652966 0.0110375 -0.00569791)
(-0.0680763 0.0109309 -0.005497)
(-0.0710161 0.010749 -0.00528844)
(-0.0348927 0.00642072 -0.00748606)
(-0.0741126 0.0104889 -0.00507932)
(-0.0781112 0.010066 -0.00482491)
(-0.0825926 0.00949999 -0.00456478)
(-0.0875725 0.00883165 -0.00434687)
(-0.11316 0.00572683 -0.00381635)
(-0.11339 0.00566384 -0.00375478)
(-0.113718 0.00552487 -0.00366433)
(-0.11385 0.00544428 -0.00363039)
(-0.114121 0.00521782 -0.00357493)
(-0.112472 0.00584268 -0.00395601)
(-0.0480484 0.00988599 -0.00693196)
(-0.0503308 0.0102429 -0.00677908)
(-0.0526691 0.0105381 -0.00661613)
(-0.0551093 0.0107748 -0.00644301)
(-0.0253686 0.00303611 -0.0067747)
(-0.0681255 0.0109198 -0.0054593)
(-0.0741617 0.0104761 -0.00504333)
(-0.0742457 0.0104639 -0.00503445)
(-0.0413094 0.00841081 -0.00732225)
(-0.0435229 0.00896528 -0.00720809)
(-0.0457868 0.00946173 -0.00707527)
(-0.0874109 0.00885564 -0.00433072)
(-0.101718 0.00690213 -0.004046)
(-0.112067 0.00588823 -0.00401019)
(-0.112766 0.00580104 -0.003905)
(-0.114174 0.00516229 -0.00356739)
(-0.105601 0.00646761 -0.00406176)
(-0.107914 0.00623207 -0.00410289)
(-0.106709 0.00635111 -0.00408133)
(-0.109105 0.00612155 -0.00412001)
(-0.110494 0.0060109 -0.00411177)
(-0.0240374 0.00301347 -0.00653912)
(-0.0244799 0.00300024 -0.00662049)
(-0.0369463 0.00711891 -0.00746754)
(-0.0391056 0.00779066 -0.00741139)
(-0.0575146 0.0109372 -0.00626956)
(-0.0600447 0.0110385 -0.00608357)
(-0.0877791 0.00880493 -0.00433447)
(-0.0939319 0.00793055 -0.00414397)
(-0.0977554 0.00740771 -0.00406917)
(-0.0220247 0.00331582 -0.0061349)
(-0.023107 0.00310551 -0.00635883)
(-0.0235961 0.00304649 -0.0064551)
(-0.0200266 0.00396435 -0.00568876)
(-0.0207621 0.00368926 -0.00585726)
(-0.104951 0.00653726 -0.00405312)
(-0.111463 0.00594095 -0.0040657)
(-0.0623717 0.0110757 -0.00590322)
(-0.106773 0.00634924 -0.00407442)
(-0.110296 0.0060261 -0.00411438)
(-0.0812092 0.00967863 -0.00461369)
(-0.0567157 0.0108855 -0.00633019)
(-0.0476727 0.00981793 -0.00695671)
(-0.0563163 0.010857 -0.00635966)
(-0.0571151 0.0109122 -0.00630017)
(-0.0592021 0.0110081 -0.00614848)
(-0.0609152 0.0110539 -0.00602198)
(-0.0635371 0.0110647 -0.00582941)
(-0.0662226 0.0110056 -0.00563456)
(-0.0690557 0.010874 -0.00543086)
(-0.0720477 0.0106663 -0.00522215)
(-0.0754446 0.0103539 -0.00499707)
(-0.0774438 0.0101388 -0.00487085)
(-0.0788596 0.00997488 -0.00478481)
(-0.0811005 0.00969332 -0.0046523)
(-0.0842512 0.0092809 -0.0044905)
(-0.0867409 0.00894583 -0.00438526)
(0.0139526 0.000696347 0.006485)
(0.01397 3.14078e-19 0.006485)
(0.0139006 0.00139096 0.006485)
(0.01397 3.14078e-19 -0.007485)
(0.0139526 0.000696347 -0.007485)
(0.013814 0.00208212 0.006485)
(0.0139006 0.00139096 -0.007485)
(0.013693 0.0027681 0.006485)
(0.013814 0.00208212 -0.007485)
(0.013538 0.0034472 0.006485)
(0.013693 0.0027681 -0.007485)
(0.0133494 0.00411773 0.006485)
(0.013538 0.0034472 -0.007485)
(0.0131275 0.00477802 0.006485)
(0.0133494 0.00411773 -0.007485)
(0.012873 0.00542643 0.006485)
(0.0131275 0.00477802 -0.007485)
(0.0125865 0.00606136 0.006485)
(0.012873 0.00542643 -0.007485)
(0.0122688 0.00668121 0.006485)
(0.0125865 0.00606136 -0.007485)
(0.0119205 0.00728445 0.006485)
(0.0122688 0.00668121 -0.007485)
(0.0115426 0.00786958 0.006485)
(0.0119205 0.00728445 -0.007485)
(0.0111359 0.00843515 0.006485)
(0.0115426 0.00786958 -0.007485)
(0.0107016 0.00897974 0.006485)
(0.0111359 0.00843515 -0.007485)
(0.0102407 0.00950201 0.006485)
(0.0107016 0.00897974 -0.007485)
(0.00975437 0.0100007 0.006485)
(0.0102407 0.00950201 -0.007485)
(0.00924375 0.0104744 0.006485)
(0.00975437 0.0100007 -0.007485)
(0.00871015 0.0109222 0.006485)
(0.00924375 0.0104744 -0.007485)
(0.0081549 0.0113428 0.006485)
(0.00871015 0.0109222 -0.007485)
(0.00757937 0.0117352 0.006485)
(0.0081549 0.0113428 -0.007485)
(0.006985 0.0120984 0.006485)
(0.00757937 0.0117352 -0.007485)
(0.00637326 0.0124315 0.006485)
(0.006985 0.0120984 -0.007485)
(0.00574568 0.0127337 0.006485)
(0.00637326 0.0124315 -0.007485)
(0.00510381 0.0130043 0.006485)
(0.00574568 0.0127337 -0.007485)
(0.00444926 0.0132425 0.006485)
(0.00510381 0.0130043 -0.007485)
(0.00378364 0.0134479 0.006485)
(0.00444926 0.0132425 -0.007485)
(0.00310862 0.0136197 0.006485)
(0.00378364 0.0134479 -0.007485)
(0.00242587 0.0137578 0.006485)
(0.00310862 0.0136197 -0.007485)
(0.00173708 0.0138616 0.006485)
(0.00242587 0.0137578 -0.007485)
(0.00173708 0.0138616 -0.007485)
(0.00104398 0.0139309 0.006485)
(0.00104398 0.0139309 -0.007485)
(0.000348282 0.0139657 0.006485)
(-0.000348282 0.0139657 0.006485)
(0.000348282 0.0139657 -0.007485)
(-0.00104398 0.0139309 0.006485)
(-0.000348282 0.0139657 -0.007485)
(-0.00104398 0.0139309 -0.007485)
(-0.00242587 0.0137578 0.006485)
(-0.00173708 0.0138616 0.006485)
(-0.00173708 0.0138616 -0.007485)
(-0.00310862 0.0136197 0.006485)
(-0.00242587 0.0137578 -0.007485)
(-0.00378364 0.0134479 0.006485)
(-0.00310862 0.0136197 -0.007485)
(-0.00444926 0.0132425 0.006485)
(-0.00378364 0.0134479 -0.007485)
(-0.00510381 0.0130043 0.006485)
(-0.00444926 0.0132425 -0.007485)
(-0.00574568 0.0127337 0.006485)
(-0.00510381 0.0130043 -0.007485)
(-0.00574568 0.0127337 -0.007485)
(-0.006985 0.0120984 0.006485)
(-0.00637326 0.0124315 0.006485)
(-0.00637326 0.0124315 -0.007485)
(-0.00757937 0.0117352 0.006485)
(-0.006985 0.0120984 -0.007485)
(-0.00757937 0.0117352 -0.007485)
(-0.00871015 0.0109222 0.006485)
(-0.0081549 0.0113428 0.006485)
(-0.0081549 0.0113428 -0.007485)
(-0.00871015 0.0109222 -0.007485)
(-0.00924375 0.0104744 0.006485)
(-0.00924375 0.0104744 -0.007485)
(-0.00975437 0.0100007 0.006485)
(-0.0102407 0.00950201 0.006485)
(-0.00975437 0.0100007 -0.007485)
(-0.0107016 0.00897974 0.006485)
(-0.0102407 0.00950201 -0.007485)
(-0.0111359 0.00843515 0.006485)
(-0.0107016 0.00897974 -0.007485)
(-0.0115426 0.00786958 0.006485)
(-0.0111359 0.00843515 -0.007485)
(-0.0119205 0.00728445 0.006485)
(-0.0115426 0.00786958 -0.007485)
(-0.0122688 0.00668121 0.006485)
(-0.0119205 0.00728445 -0.007485)
(-0.0125865 0.00606136 0.006485)
(-0.0122688 0.00668121 -0.007485)
(-0.012873 0.00542643 0.006485)
(-0.0125865 0.00606136 -0.007485)
(-0.0131275 0.00477802 0.006485)
(-0.012873 0.00542643 -0.007485)
(-0.0133494 0.00411773 0.006485)
(-0.0131275 0.00477802 -0.007485)
(-0.013538 0.0034472 0.006485)
(-0.0133494 0.00411773 -0.007485)
(-0.013693 0.0027681 0.006485)
(-0.013538 0.0034472 -0.007485)
(-0.013814 0.00208212 0.006485)
(-0.013693 0.0027681 -0.007485)
(-0.0139006 0.00139096 0.006485)
(-0.013814 0.00208212 -0.007485)
(-0.0139526 0.000696347 0.006485)
(-0.0139006 0.00139096 -0.007485)
(-0.01397 4.82347e-17 0.006485)
(-0.0139526 0.000696347 -0.007485)
(-0.0139526 -0.000696347 0.006485)
(-0.01397 -4.76065e-17 -0.007485)
(-0.0139006 -0.00139096 0.006485)
(-0.0139526 -0.000696347 -0.007485)
(-0.013814 -0.00208212 0.006485)
(-0.0139006 -0.00139096 -0.007485)
(-0.013693 -0.0027681 0.006485)
(-0.013814 -0.00208212 -0.007485)
(-0.013538 -0.0034472 0.006485)
(-0.013693 -0.0027681 -0.007485)
(-0.0133494 -0.00411773 0.006485)
(-0.013538 -0.0034472 -0.007485)
(-0.0131275 -0.00477802 0.006485)
(-0.0133494 -0.00411773 -0.007485)
(-0.012873 -0.00542643 0.006485)
(-0.0131275 -0.00477802 -0.007485)
(-0.0125865 -0.00606136 0.006485)
(-0.012873 -0.00542643 -0.007485)
(-0.0122688 -0.00668121 0.006485)
(-0.0125865 -0.00606136 -0.007485)
(-0.0119205 -0.00728445 0.006485)
(-0.0122688 -0.00668121 -0.007485)
(-0.0115426 -0.00786958 0.006485)
(-0.0119205 -0.00728445 -0.007485)
(-0.0111359 -0.00843515 0.006485)
(-0.0115426 -0.00786958 -0.007485)
(-0.0107016 -0.00897974 0.006485)
(-0.0111359 -0.00843515 -0.007485)
(-0.0102407 -0.00950201 0.006485)
(-0.0107016 -0.00897974 -0.007485)
(-0.00975437 -0.0100007 0.006485)
(-0.0102407 -0.00950201 -0.007485)
(-0.00924375 -0.0104744 0.006485)
(-0.00975437 -0.0100007 -0.007485)
(-0.00871015 -0.0109222 0.006485)
(-0.00924375 -0.0104744 -0.007485)
(-0.0081549 -0.0113428 0.006485)
(-0.00871015 -0.0109222 -0.007485)
(-0.00757937 -0.0117352 0.006485)
(-0.0081549 -0.0113428 -0.007485)
(-0.006985 -0.0120984 0.006485)
(-0.00757937 -0.0117352 -0.007485)
(-0.00637326 -0.0124315 0.006485)
(-0.006985 -0.0120984 -0.007485)
(-0.00574568 -0.0127337 0.006485)
(-0.00637326 -0.0124315 -0.007485)
(-0.00510381 -0.0130043 0.006485)
(-0.00574568 -0.0127337 -0.007485)
(-0.00444926 -0.0132425 0.006485)
(-0.00510381 -0.0130043 -0.007485)
(-0.00378364 -0.0134479 0.006485)
(-0.00444926 -0.0132425 -0.007485)
(-0.00310862 -0.0136197 0.006485)
(-0.00378364 -0.0134479 -0.007485)
(-0.00242587 -0.0137578 0.006485)
(-0.00310862 -0.0136197 -0.007485)
(-0.00173708 -0.0138616 0.006485)
(-0.00242587 -0.0137578 -0.007485)
(-0.00173708 -0.0138616 -0.007485)
(-0.00104398 -0.0139309 -0.007485)
(-0.000348282 -0.0139657 0.006485)
(-0.00104398 -0.0139309 0.006485)
(-0.000348282 -0.0139657 -0.007485)
(0.000348282 -0.0139657 0.006485)
(0.000348282 -0.0139657 -0.007485)
(0.00104398 -0.0139309 0.006485)
(0.00104398 -0.0139309 -0.007485)
(0.00173708 -0.0138616 0.006485)
(0.00173708 -0.0138616 -0.007485)
(0.00242587 -0.0137578 0.006485)
(0.00242587 -0.0137578 -0.007485)
(0.00310862 -0.0136197 0.006485)
(0.00310862 -0.0136197 -0.007485)
(0.00378364 -0.0134479 0.006485)
(0.00378364 -0.0134479 -0.007485)
(0.00444926 -0.0132425 0.006485)
(0.00444926 -0.0132425 -0.007485)
(0.00510381 -0.0130043 0.006485)
(0.00510381 -0.0130043 -0.007485)
(0.00574568 -0.0127337 0.006485)
(0.00574568 -0.0127337 -0.007485)
(0.00637326 -0.0124315 0.006485)
(0.00637326 -0.0124315 -0.007485)
(0.006985 -0.0120984 0.006485)
(0.006985 -0.0120984 -0.007485)
(0.00757937 -0.0117352 -0.007485)
(0.0081549 -0.0113428 0.006485)
(0.00757937 -0.0117352 0.006485)
(0.00871015 -0.0109222 0.006485)
(0.0081549 -0.0113428 -0.007485)
(0.00871015 -0.0109222 -0.007485)
(0.00924375 -0.0104744 0.006485)
(0.00924375 -0.0104744 -0.007485)
(0.00975437 -0.0100007 0.006485)
(0.0102407 -0.00950201 0.006485)
(0.00975437 -0.0100007 -0.007485)
(0.0107016 -0.00897974 0.006485)
(0.0102407 -0.00950201 -0.007485)
(0.0111359 -0.00843515 0.006485)
(0.0107016 -0.00897974 -0.007485)
(0.0115426 -0.00786958 0.006485)
(0.0111359 -0.00843515 -0.007485)
(0.0119205 -0.00728445 0.006485)
(0.0115426 -0.00786958 -0.007485)
(0.0122688 -0.00668121 0.006485)
(0.0119205 -0.00728445 -0.007485)
(0.0125865 -0.00606136 0.006485)
(0.0122688 -0.00668121 -0.007485)
(0.012873 -0.00542643 0.006485)
(0.0125865 -0.00606136 -0.007485)
(0.0131275 -0.00477802 0.006485)
(0.012873 -0.00542643 -0.007485)
(0.0133494 -0.00411773 0.006485)
(0.0131275 -0.00477802 -0.007485)
(0.013538 -0.0034472 0.006485)
(0.0133494 -0.00411773 -0.007485)
(0.013693 -0.0027681 0.006485)
(0.013538 -0.0034472 -0.007485)
(0.013814 -0.00208212 0.006485)
(0.013693 -0.0027681 -0.007485)
(0.0139006 -0.00139096 0.006485)
(0.013814 -0.00208212 -0.007485)
(0.0139526 -0.000696347 0.006485)
(0.0139006 -0.00139096 -0.007485)
(0.0139526 -0.000696347 -0.007485)
(0.0273982 -0.0034505 -0.00707567)
(0.1143 -0.0049805 -0.003534)
(0.1143 -0.00492553 -0.00350045)
(0.1143 -0.00485993 -0.0034623)
(0.1143 -0.00479367 -0.0034257)
(0.1143 -0.00472672 -0.00339064)
(0.1143 -0.00465929 -0.0033572)
(0.1143 -0.00459191 -0.00332564)
(0.1143 -0.00452497 -0.0032961)
(0.1143 -0.00445528 -0.00326714)
(0.1143 -0.00438739 -0.00324075)
(0.1143 -0.00432164 -0.00321699)
(0.1143 -0.00427534 -0.0032016)
(0.1143 -0.00422389 -0.00318615)
(0.1143 -0.00417364 -0.00317279)
(0.1143 -0.00412486 -0.00316155)
(0.1143 -0.00407787 -0.00315242)
(0.1143 -0.004033 -0.00314541)
(0.1143 -0.0039907 -0.00314049)
(0.1143 -0.00395154 -0.00313763)
(0.1143 -0.00391612 -0.00313674)
(0.1143 -0.00389042 -0.00313737)
(0.1143 -0.00386819 -0.00313909)
(0.1143 -0.0038497 -0.00314166)
(0.1143 -0.00383647 -0.00314446)
(0.1143 -0.00381859 -0.00315053)
(0.114148 -0.00351278 -0.00307069)
(0.1143 -0.00386241 -0.0032149)
(0.113668 -0.00242197 -0.00275337)
(0.113993 -0.00321169 -0.00297168)
(0.113993 -0.00317136 -0.00295608)
(0.114148 -0.00353489 -0.00308042)
(0.1143 -0.00497023 -0.00354274)
(0.1143 -0.0049918 -0.00354995)
(0.1143 -0.00389468 -0.00322685)
(0.1143 -0.00393958 -0.00324117)
(0.114028 -0.00341395 -0.00303674)
(0.113668 -0.00268701 -0.00283642)
(0.1143 -0.00400324 -0.00325927)
(0.1143 -0.00413737 -0.00329473)
(0.11296 -0.00575469 -0.00386619)
(0.11302 -0.00574989 -0.00385453)
(0.1143 -0.0048263 -0.00349563)
(0.1143 -0.00492409 -0.00352743)
(0.113478 -0.00562373 -0.00373177)
(0.113512 -0.00561575 -0.00372392)
(0.113581 -0.00558307 -0.003703)
(0.113553 -0.00559926 -0.00371234)
(0.113621 -0.00556509 -0.00369177)
(0.11367 -0.00554586 -0.0036798)
(0.11376 -0.00549347 -0.00365424)
(0.113805 -0.00546982 -0.00364374)
(0.113886 -0.00541581 -0.00362369)
(0.113922 -0.00538661 -0.00361426)
(0.11403 -0.0052985 -0.00359137)
(0.113995 -0.00533136 -0.00359932)
(0.114057 -0.00527443 -0.00358634)
(0.114089 -0.00524682 -0.00358153)
(0.0262629 -0.00315999 -0.00691651)
(0.114032 -0.0032029 -0.00295548)
(0.114148 -0.00348006 -0.00305272)
(0.114186 -0.0035567 -0.00307754)
(0.114262 -0.00372825 -0.00314884)
(0.1143 -0.00448457 -0.00339183)
(0.1143 -0.00462255 -0.00343243)
(0.1143 -0.00472521 -0.00346375)
(0.112959 -0.00576477 -0.00386872)
(0.113024 -0.00575257 -0.00385373)
(0.113296 -0.00568101 -0.00378197)
(0.113258 -0.00569667 -0.00379417)
(0.113463 -0.00563646 -0.00373764)
(0.113434 -0.00564389 -0.00374564)
(0.113522 -0.00561408 -0.00372098)
(0.113622 -0.00557115 -0.00369301)
(0.113764 -0.00549705 -0.00365462)
(0.113941 -0.00537513 -0.00361101)
(0.114049 -0.00528432 -0.00358871)
(0.0277572 -0.00357547 -0.00710354)
(0.0277992 -0.00359265 -0.00711627)
(0.0709846 -0.0107516 -0.00526582)
(0.0710003 -0.0107445 -0.00525832)
(0.034132 -0.00614296 -0.00747863)
(0.0740506 -0.0104877 -0.00505152)
(0.0740713 -0.0104932 -0.00505768)
(0.112786 -0.00579826 -0.0038941)
(0.112806 -0.00579613 -0.00389294)
(0.112959 -0.0057685 -0.00385814)
(0.11299 -0.00576068 -0.00384961)
(0.113023 -0.00575726 -0.00384603)
(0.11305 -0.00575102 -0.00383737)
(0.113105 -0.00574029 -0.00382633)
(0.113131 -0.0057337 -0.0038176)
(0.113154 -0.00572489 -0.00380939)
(0.113304 -0.00568902 -0.00377191)
(0.113257 -0.00570177 -0.00378427)
(0.11336 -0.00567244 -0.0037568)
(0.113412 -0.00565075 -0.00373948)
(0.113489 -0.00562681 -0.00372057)
(0.113514 -0.00562002 -0.00371565)
(0.113536 -0.00560791 -0.00370732)
(0.113544 -0.00560859 -0.00370913)
(0.113598 -0.00558528 -0.00369425)
(0.113622 -0.0055736 -0.00368602)
(0.113646 -0.00556083 -0.00367846)
(0.113694 -0.00553797 -0.00366672)
(0.113716 -0.00552458 -0.00365974)
(0.113764 -0.00549918 -0.00364853)
(0.113787 -0.00548132 -0.00364004)
(0.113849 -0.0054439 -0.00362629)
(0.113868 -0.00543209 -0.00362267)
(0.113887 -0.00541942 -0.00361956)
(0.113905 -0.0054049 -0.00361339)
(0.113923 -0.00539213 -0.00361005)
(0.113942 -0.00537842 -0.00360716)
(0.11396 -0.00536302 -0.00360145)
(0.113978 -0.00534913 -0.00359839)
(0.113996 -0.00533432 -0.00359576)
(0.114014 -0.00531798 -0.00359054)
(0.114032 -0.00530292 -0.00358779)
(0.11405 -0.00528696 -0.00358545)
(0.114085 -0.00525335 -0.00357834)
(0.114067 -0.00526964 -0.00358075)
(0.114103 -0.00523619 -0.00357632)
(0.114136 -0.00520266 -0.00357126)
(0.114208 -0.00512301 -0.00356053)
(0.114249 -0.0050722 -0.00355522)
(0.114275 -0.00504293 -0.00355459)
(0.114115 -0.00404298 -0.0032194)
(0.112449 -0.00583528 -0.00396343)
(0.112493 -0.00583191 -0.00395736)
(0.112531 -0.00583111 -0.00395137)
(0.112502 -0.00583694 -0.00395463)
(0.11256 -0.00582522 -0.00394682)
(0.112589 -0.00581928 -0.00394153)
(0.112707 -0.00580455 -0.00392093)
(0.112679 -0.00581065 -0.00392588)
(0.112735 -0.0057984 -0.00391526)
(0.112806 -0.00579296 -0.00390019)
(0.112786 -0.00579427 -0.00390543)
(0.112921 -0.00577333 -0.00387591)
(0.113079 -0.00573988 -0.00384072)
(0.113051 -0.0057438 -0.00384711)
(0.113106 -0.00573577 -0.00383372)
(0.113133 -0.00572673 -0.00382693)
(0.113297 -0.0056892 -0.00378379)
(0.113548 -0.0056048 -0.0037128)
(0.113598 -0.00558328 -0.00369885)
(0.11367 -0.00554888 -0.0036789)
(0.113694 -0.00553567 -0.00367326)
(0.113711 -0.00552335 -0.00366818)
(0.113739 -0.00550913 -0.00366108)
(0.113741 -0.00551116 -0.00365989)
(0.113808 -0.00547099 -0.00364241)
(0.113868 -0.0054302 -0.00362807)
(0.113857 -0.00543696 -0.00363092)
(0.113887 -0.00541795 -0.00362295)
(0.113942 -0.00537705 -0.00361032)
(0.113996 -0.00533305 -0.00359868)
(0.11405 -0.0052858 -0.00358813)
(0.114086 -0.00525134 -0.00358156)
(0.114105 -0.00523254 -0.00357889)
(0.11413 -0.00520584 -0.00357467)
(0.114137 -0.00519829 -0.00357369)
(0.027436 -0.00346379 -0.0070632)
(0.0274629 -0.00347432 -0.00707489)
(0.0278621 -0.00361576 -0.00711942)
(0.0278911 -0.00362742 -0.00712735)
(0.0280462 -0.00368782 -0.00714119)
(0.0280753 -0.00370014 -0.00714902)
(0.0294426 -0.00430354 -0.00729001)
(0.0348391 -0.00640439 -0.00747476)
(0.0348659 -0.00641341 -0.00747069)
(0.0434565 -0.00895171 -0.0071946)
(0.0434805 -0.00895184 -0.00718239)
(0.0484619 -0.0099577 -0.00690003)
(0.0484336 -0.00995406 -0.00689333)
(0.0484552 -0.00995329 -0.00687948)
(0.0496031 -0.0101385 -0.00682377)
(0.0502669 -0.0102358 -0.00676414)
(0.0502882 -0.0102398 -0.00676838)
(0.0529735 -0.0105712 -0.00656984)
(0.0529227 -0.0105674 -0.00657679)
(0.0629634 -0.0110757 -0.00585076)
(0.0629843 -0.0110741 -0.00584443)
(0.0629967 -0.0110725 -0.00584068)
(0.0630177 -0.0110693 -0.00583515)
(0.025815 -0.00308668 -0.00684723)
(0.0650297 -0.0110473 -0.0056987)
(0.0650611 -0.0110434 -0.00568973)
(0.065226 -0.0110394 -0.00567776)
(0.0651945 -0.0110433 -0.00568672)
(0.0652789 -0.0110409 -0.00567984)
(0.0652613 -0.0110421 -0.00568576)
(0.0656679 -0.0110291 -0.00564889)
(0.0657003 -0.0110235 -0.00563985)
(0.0656736 -0.0110298 -0.00566337)
(0.0657031 -0.0110299 -0.00565509)
(0.0670635 -0.0109803 -0.00556282)
(0.0670931 -0.01098 -0.00555456)
(0.0677232 -0.0109516 -0.00550512)
(0.0676937 -0.0109532 -0.00551268)
(0.0680559 -0.0109357 -0.00548377)
(0.0685115 -0.0109121 -0.00545238)
(0.0684789 -0.010912 -0.00544609)
(0.0699476 -0.0108257 -0.00535606)
(0.0699815 -0.0108245 -0.00534758)
(0.0700153 -0.0108217 -0.00534002)
(0.0705495 -0.0107861 -0.00530497)
(0.0705169 -0.0107855 -0.00529934)
(0.0714333 -0.0107201 -0.00523791)
(0.0737218 -0.0105291 -0.00508818)
(0.073688 -0.0105323 -0.00509569)
(0.0740102 -0.0104999 -0.00506313)
(0.0740205 -0.010501 -0.00506723)
(0.0740919 -0.0104948 -0.00506621)
(0.0777193 -0.0101149 -0.00483403)
(0.0427644 -0.00877982 -0.007249)
(0.0438792 -0.00904491 -0.00718787)
(0.045011 -0.00929633 -0.00712217)
(0.0870458 -0.00890954 -0.00434763)
(0.0870778 -0.00890119 -0.00434236)
(0.0870783 -0.00890718 -0.00435378)
(0.0870996 -0.00890375 -0.00434908)
(0.0874109 -0.00885962 -0.00433678)
(0.0874328 -0.00885437 -0.00434774)
(0.0511342 -0.0103484 -0.00672464)
(0.0535076 -0.0106238 -0.00655839)
(0.101496 -0.00693038 -0.00403155)
(0.10152 -0.00692885 -0.00403404)
(0.101644 -0.00691379 -0.00403403)