/*--------------------------------*- C++ -*----------------------------------*\
  =========                 |
  \\      /  F ield         | OpenFOAM: The Open Source CFD Toolbox
   \\    /   O peration     | Website:  https://openfoam.org
    \\  /    A nd           | Version:  13
     \\/     M anipulation  |
\*---------------------------------------------------------------------------*/
FoamFile
{
    format      ascii;
    class       extendedFeatureEdgeMesh;
    location    "constant/extendedFeatureEdgeMesh";
    object      innerCylinder.extendedFeatureEdgeMesh;
}
// * * * * * * * * * * * * * * * * * * * * * * * * * * * * * * * * * * * * * //

// points

190
(
(0.15 0.025 0)
(0.149672 0.025 0.00991359)
(0.149672 -0.025 0.00991359)
(0.15 -0.025 0)
(0.14869 -0.025 0.0197838)
(0.14869 0.025 0.0197838)
(0.147057 -0.025 0.0295676)
(0.147057 0.025 0.0295676)
(0.144781 -0.025 0.039222)
(0.144781 0.025 0.039222)
(0.141873 -0.025 0.0487049)
(0.141873 0.025 0.0487049)
(0.138343 -0.025 0.0579749)
(0.138343 0.025 0.0579749)
(0.134209 -0.025 0.0669913)
(0.134209 0.025 0.0669913)
(0.129488 -0.025 0.0757148)
(0.129488 0.025 0.0757148)
(0.124201 -0.025 0.0841073)
(0.124201 0.025 0.0841073)
(0.118371 -0.025 0.0921319)
(0.118371 0.025 0.0921319)
(0.112023 -0.025 0.0997537)
(0.112023 0.025 0.0997537)
(0.105186 -0.025 0.106939)
(0.105186 0.025 0.106939)
(0.0978879 -0.025 0.113657)
(0.0978879 0.025 0.113657)
(0.0901622 -0.025 0.119878)
(0.0901622 0.025 0.119878)
(0.0820422 -0.025 0.125575)
(0.0820422 0.025 0.125575)
(0.0735635 -0.025 0.130723)
(0.0735635 0.025 0.130723)
(0.0647632 -0.025 0.135299)
(0.0647632 0.025 0.135299)
(0.0556796 -0.025 0.139283)
(0.0556796 0.025 0.139283)
(0.0463526 -0.025 0.142659)
(0.0463526 0.025 0.142659)
(0.0368228 -0.025 0.14541)
(0.0368228 0.025 0.14541)
(0.0271321 -0.025 0.147526)
(0.0271321 0.025 0.147526)
(0.0173227 -0.025 0.148996)
(0.00743756 -0.025 0.149815)
(0.0173227 0.025 0.148996)
(-0.00248009 -0.025 0.14998)
(0.00743756 0.025 0.149815)
(-0.00248009 0.025 0.14998)
(-0.0123869 -0.025 0.149488)
(-0.0123869 0.025 0.149488)
(-0.0222395 -0.025 0.148342)
(-0.0222395 0.025 0.148342)
(-0.0319949 0.025 0.146548)
(-0.0319949 -0.025 0.146548)
(-0.0416104 0.025 0.144113)
(-0.0416104 -0.025 0.144113)
(-0.051044 0.025 0.141048)
(-0.051044 -0.025 0.141048)
(-0.0602543 0.025 0.137366)
(-0.0602543 -0.025 0.137366)
(-0.0692012 0.025 0.133083)
(-0.0692012 -0.025 0.133083)
(-0.0778454 0.025 0.128219)
(-0.0778454 -0.025 0.128219)
(-0.0861493 0.025 0.122794)
(-0.0861493 -0.025 0.122794)
(-0.0940764 -0.025 0.116832)
(-0.0940764 0.025 0.116832)
(-0.101592 0.025 0.110359)
(-0.101592 -0.025 0.110359)
(-0.108664 -0.025 0.103403)
(-0.11526 -0.025 0.0959953)
(-0.108664 0.025 0.103403)
(-0.11526 0.025 0.0959953)
(-0.121353 -0.025 0.0881678)
(-0.121353 0.025 0.0881678)
(-0.126914 -0.025 0.0799548)
(-0.131921 -0.025 0.0713921)
(-0.126914 0.025 0.0799548)
(-0.131921 0.025 0.0713921)
(-0.136351 -0.025 0.0625173)
(-0.140185 -0.025 0.0533691)
(-0.136351 0.025 0.0625173)
(-0.140185 0.025 0.0533691)
(-0.143405 -0.025 0.0439875)
(-0.143405 0.025 0.0439875)
(-0.145999 -0.025 0.0344136)
(-0.147954 -0.025 0.0246892)
(-0.145999 0.025 0.0344136)
(-0.147954 0.025 0.0246892)
(-0.149262 -0.025 0.0148568)
(-0.149918 -0.025 0.00495951)
(-0.149262 0.025 0.0148568)
(-0.149918 0.025 0.00495951)
(-0.149918 -0.025 -0.00495951)
(-0.149262 -0.025 -0.0148568)
(-0.149918 0.025 -0.00495951)
(-0.147954 -0.025 -0.0246892)
(-0.149262 0.025 -0.0148568)
(-0.147954 0.025 -0.0246892)
(-0.145999 -0.025 -0.0344136)
(-0.145999 0.025 -0.0344136)
(-0.143405 -0.025 -0.0439875)
(-0.143405 0.025 -0.0439875)
(-0.140185 0.025 -0.0533691)
(-0.140185 -0.025 -0.0533691)
(-0.136351 0.025 -0.0625173)
(-0.136351 -0.025 -0.0625173)
(-0.131921 -0.025 -0.0713921)
(-0.131921 0.025 -0.0713921)
(-0.126914 -0.025 -0.0799548)
(-0.126914 0.025 -0.0799548)
(-0.121353 0.025 -0.0881678)
(-0.121353 -0.025 -0.0881678)
(-0.11526 0.025 -0.0959953)
(-0.11526 -0.025 -0.0959953)
(-0.108664 0.025 -0.103403)
(-0.108664 -0.025 -0.103403)
(-0.101592 -0.025 -0.110359)
(-0.101592 0.025 -0.110359)
(-0.0940764 0.025 -0.116832)
(-0.0940764 -0.025 -0.116832)
(-0.0861493 0.025 -0.122794)
(-0.0861493 -0.025 -0.122794)
(-0.0778454 0.025 -0.128219)
(-0.0778454 -0.025 -0.128219)
(-0.0692012 0.025 -0.133083)
(-0.0692012 -0.025 -0.133083)
(-0.0602543 0.025 -0.137366)
(-0.0602543 -0.025 -0.137366)
(-0.051044 0.025 -0.141048)
(-0.051044 -0.025 -0.141048)
(-0.0416104 0.025 -0.144113)
(-0.0416104 -0.025 -0.144113)
(-0.0319949 0.025 -0.146548)
(-0.0319949 -0.025 -0.146548)
(-0.0222395 -0.025 -0.148342)
(-0.0222395 0.025 -0.148342)
(-0.0123869 0.025 -0.149488)
(-0.0123869 -0.025 -0.149488)
(-0.00248009 -0.025 -0.14998)
(-0.00248009 0.025 -0.14998)
(0.00743756 -0.025 -0.149815)
(0.00743756 0.025 -0.149815)
(0.0173227 -0.025 -0.148996)
(0.0173227 0.025 -0.148996)
(0.0271321 -0.025 -0.147526)
(0.0271321 0.025 -0.147526)
(0.0368228 -0.025 -0.14541)
(0.0368228 0.025 -0.14541)
(0.0463526 -0.025 -0.142659)
(0.0463526 0.025 -0.142659)
(0.0556796 -0.025 -0.139283)
(0.0556796 0.025 -0.139283)
(0.0647632 0.025 -0.135299)
(0.0647632 -0.025 -0.135299)
(0.0735635 0.025 -0.130723)
(0.0735635 -0.025 -0.130723)
(0.0820422 0.025 -0.125575)
(0.0820422 -0.025 -0.125575)
(0.0901622 0.025 -0.119878)
(0.0901622 -0.025 -0.119878)
(0.0978879 0.025 -0.113657)
(0.0978879 -0.025 -0.113657)
(0.105186 0.025 -0.106939)
(0.105186 -0.025 -0.106939)
(0.112023 0.025 -0.0997537)
(0.112023 -0.025 -0.0997537)
(0.118371 -0.025 -0.0921319)
(0.118371 0.025 -0.0921319)
(0.124201 0.025 -0.0841073)
(0.124201 -0.025 -0.0841073)
(0.129488 0.025 -0.0757148)
(0.129488 -0.025 -0.0757148)
(0.134209 0.025 -0.0669913)
(0.134209 -0.025 -0.0669913)
(0.138343 0.025 -0.0579749)
(0.138343 -0.025 -0.0579749)
(0.141873 -0.025 -0.0487049)
(0.141873 0.025 -0.0487049)
(0.144781 0.025 -0.039222)
(0.144781 -0.025 -0.039222)
(0.147057 -0.025 -0.0295676)
(0.147057 0.025 -0.0295676)
(0.14869 0.025 -0.0197838)
(0.14869 -0.025 -0.0197838)
(0.149672 0.025 -0.00991359)
(0.149672 -0.025 -0.00991359)
)

// edges

190
(
(0 1)
(2 3)
(4 2)
(1 5)
(6 4)
(5 7)
(8 6)
(7 9)
(10 8)
(9 11)
(12 10)
(11 13)
(14 12)
(13 15)
(16 14)
(15 17)
(18 16)
(17 19)
(20 18)
(19 21)
(22 20)
(21 23)
(24 22)
(23 25)
(26 24)
(25 27)
(28 26)
(27 29)
(30 28)
(29 31)
(32 30)
(31 33)
(34 32)
(33 35)
(36 34)
(35 37)
(38 36)
(37 39)
(40 38)
(39 41)
(42 40)
(41 43)
(44 42)
(45 44)
(43 46)
(47 45)
(46 48)
(48 49)
(50 47)
(49 51)
(52 50)
(51 53)
(53 54)
(55 52)
(54 56)
(57 55)
(56 58)
(59 57)
(58 60)
(61 59)
(60 62)
(63 61)
(62 64)
(65 63)
(64 66)
(67 65)
(68 67)
(66 69)
(69 70)
(71 68)
(72 71)
(73 72)
(70 74)
(74 75)
(76 73)
(75 77)
(78 76)
(79 78)
(77 80)
(80 81)
(82 79)
(83 82)
(81 84)
(84 85)
(86 83)
(85 87)
(88 86)
(89 88)
(87 90)
(90 91)
(92 89)
(93 92)
(91 94)
(94 95)
(96 93)
(97 96)
(95 98)
(99 97)
(98 100)
(100 101)
(102 99)
(101 103)
(104 102)
(103 105)
(105 106)
(107 104)
(106 108)
(109 107)
(110 109)
(108 111)
(112 110)
(111 113)
(113 114)
(115 112)
(114 116)
(117 115)
(116 118)
(119 117)
(120 119)
(118 121)
(121 122)
(123 120)
(122 124)
(125 123)
(124 126)
(127 125)
(126 128)
(129 127)
(128 130)
(131 129)
(130 132)
(133 131)
(132 134)
(135 133)
(134 136)
(137 135)
(138 137)
(136 139)
(139 140)
(141 138)
(142 141)
(140 143)
(144 142)
(143 145)
(146 144)
(145 147)
(148 146)
(147 149)
(150 148)
(149 151)
(152 150)
(151 153)
(154 152)
(153 155)
(155 156)
(157 154)
(156 158)
(159 157)
(158 160)
(161 159)
(160 162)
(163 161)
(162 164)
(165 163)
(164 166)
(167 165)
(166 168)
(169 167)
(170 169)
(168 171)
(171 172)
(173 170)
(172 174)
(175 173)
(174 176)
(177 175)
(176 178)
(179 177)
(180 179)
(178 181)
(181 182)
(183 180)
(184 183)
(182 185)
(185 186)
(187 184)
(186 188)
(189 187)
(3 189)
(188 0)
)

// concaveStart mixedStart nonFeatureStart
0 0 0
// internalStart flatStart openStart multipleStart
190 190 190 190
// normals

364
(
(0.999453 0 0.0330682)
(0 1 0)
(0.999453 0 0.0330682)
(0 -1 0)
(0.995083 0 0.0990425)
(0 -1 0)
(0.995083 0 0.0990425)
(0 1 0)
(0.986362 0 0.164593)
(0 -1 0)
(0.986362 0 0.164593)
(0 1 0)
(0.973326 0 0.229427)
(0 -1 0)
(0.973326 0 0.229427)
(0 1 0)
(0.956037 0 0.293246)
(0 -1 0)
(0.956037 0 0.293246)
(0 1 0)
(0.934565 0 0.355792)
(0 -1 0)
(0.934565 0 0.355792)
(0 1 0)
(0.909005 0 0.416785)
(0 -1 0)
(0.909005 0 0.416785)
(0 1 0)
(0.879475 0 0.475945)
(0.879475 0 0.475945)
(0.846093 0 0.533035)
(0 -1 0)
(0.846093 0 0.533035)
(0 1 0)
(0.80902 0 0.587782)
(0.80902 0 0.587782)
(0.768399 0 0.639971)
(0 -1 0)
(0.768399 0 0.639971)
(0 1 0)
(0.724427 0 0.689352)
(0 -1 0)
(0.724427 0 0.689352)
(0 1 0)
(0.677279 0 0.735727)
(0 -1 0)
(0.677279 0 0.735727)
(0 1 -0)
(0.627179 0 0.778875)
(0 -1 0)
(0.627179 0 0.778875)
(0 1 0)
(0.57433 0 0.818624)
(0 -1 0)
(0.57433 0 0.818624)
(0 1 0)
(0.518965 0 0.854796)
(0 -1 0)
(0.518965 0 0.854796)
(0 1 0)
(0.461345 0 0.887221)
(0 -1 0)
(0.461345 0 0.887221)
(0 1 0)
(0.401694 0 0.915774)
(0 -1 0)
(0.401694 0 0.915774)
(0 1 0)
(0.340295 0 0.940319)
(0 -1 0)
(0.340295 0 0.940319)
(0 1 0)
(0.277397 0 0.960755)
(0 -1 0)
(0.277397 0 0.960755)
(0 1 0)
(0.213307 0 0.976985)
(0 -1 0)
(0.213307 0 0.976985)
(0 1 0)
(0.14826 0 0.988948)
(0 -1 0)
(0.082579 0 0.996585)
(0 -1 0)
(0.14826 0 0.988948)
(0 1 0)
(0.0165341 0 0.999863)
(0 -1 0)
(0.082579 0 0.996585)
(0 1 0)
(0.0165341 0 0.999863)
(0 1 0)
(-0.0495814 0 0.99877)
(0 -1 0)
(-0.0495814 0 0.99877)
(0 1 0)
(-0.115485 0 0.993309)
(0 -1 0)
(-0.115485 0 0.993309)
(0 1 0)
(-0.180885 0 0.983504)
(0 1 0)
(-0.180885 0 0.983504)
(0 -1 0)
(-0.245479 0 0.969402)
(0 1 0)
(-0.245479 0 0.969402)
(0 -1 0)
(-0.309022 0 0.951055)
(0 1 0)
(-0.309022 0 0.951055)
(0 -1 0)
(-0.371197 0 0.928554)
(0 1 0)
(-0.371197 0 0.928554)
(0 -1 0)
(-0.431756 0 0.901991)
(0 1 0)
(-0.431756 0 0.901991)
(0 -1 0)
(-0.490422 0 0.871485)
(0 1 0)
(-0.490422 0 0.871485)
(0 -1 0)
(-0.54695 0 0.837165)
(0 1 0)
(-0.54695 0 0.837165)
(0 -1 0)
(-0.601079 0 0.799189)
(0 -1 0)
(-0.601079 0 0.799189)
(0 1 0)
(-0.652587 0 0.757714)
(0 1 0)
(-0.652587 0 0.757714)
(0 -1 0)
(-0.701235 0 0.71293)
(0 -1 0)
(-0.74682 0 0.665026)
(0 -1 0)
(-0.701235 0 0.71293)
(0 1 0)
(-0.74682 0 0.665026)
(0 1 0)
(-0.789144 0 0.614208)
(0 -1 0)
(-0.789144 0 0.614208)
(0 1 0)
(-0.828006 0 0.560719)
(0 -1 0)
(-0.863255 0 0.504768)
(0 -1 0)
(-0.828006 0 0.560719)
(0 1 0)
(-0.863255 0 0.504768)
(0 1 0)
(-0.89473 0 0.446608)
(0 -1 0)
(-0.922289 0 0.3865)
(0 -1 0)
(-0.89473 0 0.446608)
(0 1 0)
(-0.922289 0 0.3865)
(0 1 0)
(-0.945817 0 0.324699)
(0 -1 0)
(-0.945817 0 0.324699)
(0 1 0)
(-0.965209 0 0.261478)
(0 -1 0)
(-0.98038 0 0.197116)
(0 -1 0)
(-0.965209 0 0.261478)
(0 1 0)
(-0.98038 0 0.197116)
(0 1 0)
(-0.991265 0 0.131888)
(0 -1 0)
(-0.997813 0 0.0660959)
(0 -1 0)
(-0.991265 0 0.131888)
(0 1 0)
(-0.997813 0 0.0660959)
(0 1 0)
(-1 0 0)
(0 -1 0)
(-0.997813 -0 -0.0660959)
(0 -1 0)
(-1 0 0)
(0 1 0)
(-0.991265 -0 -0.131888)
(0 -1 0)
(-0.997813 -0 -0.0660959)
(0 1 0)
(-0.991265 -0 -0.131888)
(0 1 0)
(-0.98038 -0 -0.197116)
(0 -1 0)
(-0.98038 0 -0.197116)
(0 1 0)
(-0.965209 -0 -0.261478)
(0 -1 0)
(-0.965209 0 -0.261478)
(0 1 0)
(-0.945817 0 -0.324699)
(0 1 0)
(-0.945817 -0 -0.324699)
(0 -1 0)
(-0.922289 0 -0.3865)
(0 1 0)
(-0.922289 -0 -0.3865)
(0 -1 0)
(-0.89473 -0 -0.446608)
(0 -1 0)
(-0.89473 -0 -0.446608)
(0 1 0)
(-0.863255 -0 -0.504768)
(0 -1 0)
(-0.863255 -0 -0.504768)
(0 1 0)
(-0.828006 0 -0.560719)
(0 1 0)
(-0.828006 -0 -0.560719)
(0 -1 0)
(-0.789144 0 -0.614208)
(-0.789144 -0 -0.614208)
(-0.74682 0 -0.665026)
(0 1 0)
(-0.74682 -0 -0.665026)
(0 -1 0)
(-0.701235 -0 -0.71293)
(-0 -1 0)
(-0.701235 -0 -0.71293)
(0 1 0)
(-0.652587 0 -0.757714)
(0 1 0)
(-0.652587 -0 -0.757714)
(0 -1 0)
(-0.601079 0 -0.799189)
(0 1 0)
(-0.601079 -0 -0.799189)
(0 -1 0)
(-0.54695 0 -0.837165)
(-0.54695 -0 -0.837165)
(-0.490422 0 -0.871485)
(0 1 0)
(-0.490422 -0 -0.871485)
(0 -1 0)
(-0.431756 0 -0.901991)
(0 1 0)
(-0.431756 -0 -0.901991)
(0 -1 0)
(-0.371197 0 -0.928554)
(0 1 0)
(-0.371197 -0 -0.928554)
(0 -1 0)
(-0.309022 0 -0.951055)
(0 1 0)
(-0.309022 -0 -0.951055)
(0 -1 0)
(-0.245479 0 -0.969402)
(0 1 0)
(-0.245479 -0 -0.969402)
(0 -1 0)
(-0.180885 -0 -0.983504)
(0 -1 0)
(-0.180885 0 -0.983504)
(0 1 0)
(-0.115485 0 -0.993309)
(0 1 0)
(-0.115485 -0 -0.993309)
(0 -1 0)
(-0.0495814 -0 -0.99877)
(0 -1 0)
(-0.0495814 0 -0.99877)
(0 1 0)
(0.0165341 0 -0.999863)
(0 -1 0)
(0.0165341 0 -0.999863)
(0 1 0)
(0.082579 0 -0.996585)
(0 -1 0)
(0.082579 0 -0.996585)
(0 1 0)
(0.14826 0 -0.988948)
(0 -1 0)
(0.14826 0 -0.988948)
(0 1 0)
(0.213307 0 -0.976985)
(0.213307 0 -0.976985)
(0.277397 0 -0.960755)
(0 -1 0)
(0.277397 0 -0.960755)
(0 1 0)
(0.340295 0 -0.940319)
(0 -1 0)
(0.340295 0 -0.940319)
(0 1 0)
(0.401694 0 -0.915774)
(0 1 0)
(0.401694 0 -0.915774)
(0 -1 0)
(0.461345 0 -0.887221)
(0.461345 0 -0.887221)
(0.518965 0 -0.854796)
(0 1 0)
(0.518965 0 -0.854796)
(0 -1 0)
(0.57433 0 -0.818624)
(0 1 0)
(0.57433 0 -0.818624)
(0 -1 0)
(0.627179 0 -0.778875)
(0 1 0)
(0.627179 0 -0.778875)
(0 -1 0)
(0.677279 0 -0.735727)
(0.677279 0 -0.735727)
(0.724427 0 -0.689352)
(0 1 0)
(0.724427 0 -0.689352)
(0 -1 0)
(0.768399 0 -0.639971)
(0.768399 0 -0.639971)
(0.80902 0 -0.587782)
(0 1 0)
(0.80902 0 -0.587782)
(0 -1 0)
(0.846093 0 -0.533035)
(0 1 0)
(0.846093 0 -0.533035)
(0 -1 0)
(0.879475 0 -0.475945)
(0 1 0)
(0.879475 0 -0.475945)
(0 -1 0)
(0.909005 0 -0.416785)
(0 1 0)
(0.909005 0 -0.416785)
(0 -1 0)
(0.934565 0 -0.355792)
(0 -1 0)
(0.934565 0 -0.355792)
(0 1 0)
(0.956037 0 -0.293246)
(0 1 0)
(0.956037 0 -0.293246)
(0 -1 0)
(0.973326 0 -0.229427)
(0 -1 0)
(0.973326 0 -0.229427)
(0 1 0)
(0.986362 0 -0.164593)
(0 1 0)
(0.986362 0 -0.164593)
(0 -1 0)
(0.995083 0 -0.0990425)
(0 1 0)
(0.995083 0 -0.0990425)
(0 -1 0)
(0.999453 0 -0.0330682)
(0 -1 0)
(0.999453 0 -0.0330682)
(0 1 0)
)

// normal volume types

364
(
0
0
0
0
0
0
0
0
0
0
0
0
0
0
0
0
0
0
0
0
0
0
0
0
0
0
0
0
0
0
0
0
0
0
0
0
0
0
0
0
0
0
0
0
0
0
0
0
0
0
0
0
0
0
0
0
0
0
0
0
0
0
0
0
0
0
0
0
0
0
0
0
0
0
0
0
0
0
0
0
0
0
0
0
0
0
0
0
0
0
0
0
0
0
0
0
0
0
0
0
0
0
0
0
0
0
0
0
0
0
0
0
0
0
0
0
0
0
0
0
0
0
0
0
0
0
0
0
0
0
0
0
0
0
0
0
0
0
0
0
0
0
0
0
0
0
0
0
0
0
0
0
0
0
0
0
0
0
0
0
0
0
0
0
0
0
0
0
0
0
0
0
0
0
0
0
0
0
0
0
0
0
0
0
0
0
0
0
0
0
0
0
0
0
0
0
0
0
0
0
0
0
0
0
0
0
0
0
0
0
0
0
0
0
0
0
0
0
0
0
0
0
0
0
0
0
0
0
0
0
0
0
0
0
0
0
0
0
0
0
0
0
0
0
0
0
0
0
0
0
0
0
0
0
0
0
0
0
0
0
0
0
0
0
0
0
0
0
0
0
0
0
0
0
0
0
0
0
0
0
0
0
0
0
0
0
0
0
0
0
0
0
0
0
0
0
0
0
0
0
0
0
0
0
0
0
0
0
0
0
0
0
0
0
0
0
0
0
0
0
0
0
0
0
0
0
0
0
0
0
0
0
0
0
0
0
0
0
0
0
0
0
0
0
0
0
0
0
0
0
0
0
0
0
0
0
0
0
0
0
0
0
0
0
)

// normalDirections

190
(
2(1 -1)
2(1 -1)
2(1 -1)
2(1 -1)
2(1 -1)
2(1 -1)
2(1 -1)
2(1 -1)
2(1 -1)
2(1 -1)
2(1 -1)
2(1 -1)
2(1 -1)
2(1 -1)
2(1 -1)
2(1 -1)
2(1 -1)
2(1 -1)
2(1 -1)
2(1 -1)
2(1 -1)
2(1 -1)
2(1 -1)
2(1 -1)
2(1 -1)
2(1 -1)
2(1 -1)
2(1 -1)
2(1 -1)
2(1 -1)
2(1 -1)
2(1 -1)
2(1 -1)
2(1 -1)
2(1 -1)
2(1 -1)
2(1 -1)
2(1 -1)
2(1 -1)
2(1 -1)
2(1 -1)
2(1 -1)
2(1 -1)
2(1 -1)
2(1 -1)
2(1 -1)
2(1 -1)
2(1 -1)
2(1 -1)
2(1 -1)
2(1 -1)
2(1 -1)
2(1 -1)
2(1 -1)
2(1 -1)
2(1 -1)
2(1 -1)
2(1 -1)
2(1 -1)
2(1 -1)
2(1 -1)
2(1 -1)
2(1 -1)
2(1 -1)
2(1 -1)
2(1 -1)
2(1 -1)
2(1 -1)
2(1 -1)
2(1 -1)
2(1 -1)
2(1 -1)
2(1 -1)
2(1 -1)
2(1 -1)
2(1 -1)
2(1 -1)
2(1 -1)
2(1 -1)
2(1 -1)
2(1 -1)
2(1 -1)
2(1 -1)
2(1 -1)
2(1 -1)
2(1 -1)
2(1 -1)
2(1 -1)
2(1 -1)
2(1 -1)
2(1 -1)
2(1 -1)
2(1 -1)
2(1 -1)
2(1 -1)
2(1 -1)
2(1 -1)
2(1 -1)
2(1 -1)
2(1 -1)
2(1 -1)
2(1 -1)
2(1 -1)
2(1 -1)
2(1 -1)
2(1 -1)
2(1 -1)
2(1 -1)
2(1 -1)
2(1 -1)
2(1 -1)
2(1 -1)
2(1 -1)
2(1 -1)
2(1 -1)
2(1 -1)
2(1 -1)
2(1 -1)
2(1 -1)
2(1 -1)
2(1 -1)
2(1 -1)
2(1 -1)
2(1 -1)
2(1 -1)
2(1 -1)
2(1 -1)
2(1 -1)
2(1 -1)
2(1 -1)
2(1 -1)
2(1 -1)
2(1 -1)
2(1 -1)
2(1 -1)
2(1 -1)
2(1 -1)
2(1 -1)
2(1 -1)
2(1 -1)
2(1 -1)
2(1 -1)
2(1 -1)
2(1 -1)
2(1 -1)
2(1 -1)
2(1 -1)
2(1 -1)
2(1 -1)
2(1 -1)
2(1 -1)
2(1 -1)
2(1 -1)
2(1 -1)
2(1 -1)
2(1 -1)
2(1 -1)
2(1 -1)
2(1 -1)
2(1 -1)
2(1 -1)
2(1 -1)
2(1 -1)
2(1 -1)
2(1 -1)
2(1 -1)
2(1 -1)
2(1 -1)
2(1 -1)
2(1 -1)
2(1 -1)
2(1 -1)
2(1 -1)
2(1 -1)
2(1 -1)
2(1 -1)
2(1 -1)
2(1 -1)
2(1 -1)
2(1 -1)
2(1 -1)
2(1 -1)
2(1 -1)
2(1 -1)
2(1 -1)
2(1 -1)
2(1 -1)
2(1 -1)
2(1 -1)
2(1 -1)
)

// edgeNormals

190
(
2(0 1)
2(2 3)
2(4 5)
2(6 7)
2(8 9)
2(10 11)
2(12 13)
2(14 15)
2(16 17)
2(18 19)
2(20 21)
2(22 23)
2(24 25)
2(26 27)
2(28 25)
2(29 27)
2(30 31)
2(32 33)
2(34 31)
2(35 33)
2(36 37)
2(38 39)
2(40 41)
2(42 43)
2(44 45)
2(46 47)
2(48 49)
2(50 51)
2(52 53)
2(54 55)
2(56 57)
2(58 59)
2(60 61)
2(62 63)
2(64 65)
2(66 67)
2(68 69)
2(70 71)
2(72 73)
2(74 75)
2(76 77)
2(78 79)
2(80 81)
2(82 83)
2(84 85)
2(86 87)
2(88 89)
2(90 91)
2(92 93)
2(94 95)
2(96 97)
2(98 99)
2(100 101)
2(102 103)
2(104 105)
2(106 107)
2(108 109)
2(110 111)
2(112 113)
2(114 115)
2(116 117)
2(118 119)
2(120 121)
2(122 123)
2(124 125)
2(126 127)
2(128 129)
2(130 131)
2(132 133)
2(134 135)
2(136 137)
2(138 139)
2(140 141)
2(142 143)
2(144 145)
2(146 147)
2(148 149)
2(150 151)
2(152 153)
2(154 155)
2(156 157)
2(158 159)
2(160 161)
2(162 163)
2(164 165)
2(166 167)
2(168 169)
2(170 171)
2(172 173)
2(174 175)
2(176 177)
2(178 179)
2(180 181)
2(182 183)
2(184 185)
2(186 187)
2(188 189)
2(190 191)
2(192 193)
2(194 195)
2(196 197)
2(198 199)
2(200 201)
2(202 203)
2(204 205)
2(206 207)
2(208 209)
2(210 211)
2(212 213)
2(214 215)
2(216 217)
2(218 219)
2(220 221)
2(222 223)
2(224 221)
2(225 223)
2(226 227)
2(228 229)
2(230 231)
2(232 233)
2(234 235)
2(236 237)
2(238 239)
2(240 241)
2(242 239)
2(243 241)
2(244 245)
2(246 247)
2(248 249)
2(250 251)
2(252 253)
2(254 255)
2(256 257)
2(258 259)
2(260 261)
2(262 263)
2(264 265)
2(266 267)
2(268 269)
2(270 271)
2(272 273)
2(274 275)
2(276 277)
2(278 279)
2(280 281)
2(282 283)
2(284 285)
2(286 287)
2(288 285)
2(289 287)
2(290 291)
2(292 293)
2(294 295)
2(296 297)
2(298 299)
2(300 301)
2(302 299)
2(303 301)
2(304 305)
2(306 307)
2(308 309)
2(310 311)
2(312 313)
2(314 315)
2(316 313)
2(317 315)
2(318 319)
2(320 321)
2(322 321)
2(323 319)
2(324 325)
2(326 327)
2(328 329)
2(330 331)
2(332 333)
2(334 335)
2(336 337)
2(338 339)
2(340 341)
2(342 343)
2(344 345)
2(346 347)
2(348 349)
2(350 351)
2(352 353)
2(354 355)
2(356 357)
2(358 359)
2(360 361)
2(362 363)
)

// featurePointNormals
0()
// featurePointEdges
0()
// regionEdges
0()


// ************************************************************************* //
