/*--------------------------------*- C++ -*----------------------------------*\
  =========                 |
  \\      /  F ield         | OpenFOAM: The Open Source CFD Toolbox
   \\    /   O peration     | Website:  https://openfoam.org
    \\  /    A nd           | Version:  13
     \\/     M anipulation  |
\*---------------------------------------------------------------------------*/
FoamFile
{
    format      ascii;
    class       extendedFeatureEdgeMesh;
    location    "constant/extendedFeatureEdgeMesh";
    object      outerCylinder.extendedFeatureEdgeMesh;
}
// * * * * * * * * * * * * * * * * * * * * * * * * * * * * * * * * * * * * * //

// points

252
(
(0.375 0.1875 0)
(0.374534 0.1875 0.0186922)
(0.374534 -0.5 0.0186922)
(0.375 -0.5 0)
(0.373136 -0.5 0.0373379)
(0.373136 0.1875 0.0373379)
(0.370812 -0.5 0.0558909)
(0.370812 0.1875 0.0558909)
(0.367565 -0.5 0.0743048)
(0.367565 0.1875 0.0743048)
(0.363404 -0.5 0.092534)
(0.363404 0.1875 0.092534)
(0.35834 -0.5 0.110533)
(0.352385 -0.5 0.128258)
(0.35834 0.1875 0.110533)
(0.352385 0.1875 0.128258)
(0.345554 -0.5 0.145663)
(0.345554 0.1875 0.145663)
(0.337863 -0.5 0.162706)
(0.337863 0.1875 0.162706)
(0.329333 -0.5 0.179345)
(0.319984 -0.5 0.195538)
(0.329333 0.1875 0.179345)
(0.319984 0.1875 0.195538)
(0.309839 0.1875 0.211245)
(0.309839 -0.5 0.211245)
(0.298925 0.1875 0.226427)
(0.298925 -0.5 0.226427)
(0.287267 0.1875 0.241045)
(0.287267 -0.5 0.241045)
(0.274895 -0.5 0.255065)
(0.274895 0.1875 0.255065)
(0.261839 -0.5 0.26845)
(0.261839 0.1875 0.26845)
(0.248132 -0.5 0.281168)
(0.233809 -0.5 0.293187)
(0.248132 0.1875 0.281168)
(0.233809 0.1875 0.293187)
(0.218904 0.1875 0.304477)
(0.218904 -0.5 0.304477)
(0.203455 -0.5 0.31501)
(0.203455 0.1875 0.31501)
(0.1875 -0.5 0.32476)
(0.171079 -0.5 0.333702)
(0.1875 0.1875 0.32476)
(0.171079 0.1875 0.333702)
(0.154233 -0.5 0.341815)
(0.154233 0.1875 0.341815)
(0.137003 -0.5 0.349078)
(0.137003 0.1875 0.349078)
(0.119433 -0.5 0.355473)
(0.119433 0.1875 0.355473)
(0.101565 -0.5 0.360984)
(0.101565 0.1875 0.360984)
(0.0834453 -0.5 0.365598)
(0.0834453 0.1875 0.365598)
(0.0651181 -0.5 0.369303)
(0.0466289 -0.5 0.37209)
(0.0651181 0.1875 0.369303)
(0.0466289 0.1875 0.37209)
(0.0280238 -0.5 0.373951)
(0.0280238 0.1875 0.373951)
(0.00934901 -0.5 0.374883)
(-0.00934901 -0.5 0.374883)
(0.00934901 0.1875 0.374883)
(-0.0280238 -0.5 0.373951)
(-0.00934901 0.1875 0.374883)
(-0.0280238 0.1875 0.373951)
(-0.0466289 -0.5 0.37209)
(-0.0466289 0.1875 0.37209)
(-0.0651181 -0.5 0.369303)
(-0.0651181 0.1875 0.369303)
(-0.0834453 -0.5 0.365598)
(-0.0834453 0.1875 0.365598)
(-0.101565 -0.5 0.360984)
(-0.119433 -0.5 0.355473)
(-0.101565 0.1875 0.360984)
(-0.119433 0.1875 0.355473)
(-0.137003 -0.5 0.349078)
(-0.137003 0.1875 0.349078)
(-0.154233 0.1875 0.341815)
(-0.154233 -0.5 0.341815)
(-0.171079 0.1875 0.333702)
(-0.171079 -0.5 0.333702)
(-0.1875 -0.5 0.32476)
(-0.1875 0.1875 0.32476)
(-0.203455 -0.5 0.31501)
(-0.203455 0.1875 0.31501)
(-0.218904 0.1875 0.304477)
(-0.218904 -0.5 0.304477)
(-0.233809 -0.5 0.293187)
(-0.233809 0.1875 0.293187)
(-0.248132 -0.5 0.281168)
(-0.248132 0.1875 0.281168)
(-0.261839 0.1875 0.26845)
(-0.261839 -0.5 0.26845)
(-0.274895 -0.5 0.255065)
(-0.274895 0.1875 0.255065)
(-0.287267 -0.5 0.241045)
(-0.298925 -0.5 0.226427)
(-0.287267 0.1875 0.241045)
(-0.298925 0.1875 0.226427)
(-0.309839 -0.5 0.211245)
(-0.309839 0.1875 0.211245)
(-0.319984 -0.5 0.195538)
(-0.319984 0.1875 0.195538)
(-0.329333 -0.5 0.179345)
(-0.337863 -0.5 0.162706)
(-0.329333 0.1875 0.179345)
(-0.337863 0.1875 0.162706)
(-0.345554 -0.5 0.145663)
(-0.345554 0.1875 0.145663)
(-0.352385 -0.5 0.128258)
(-0.352385 0.1875 0.128258)
(-0.35834 -0.5 0.110533)
(-0.35834 0.1875 0.110533)
(-0.363404 -0.5 0.092534)
(-0.363404 0.1875 0.092534)
(-0.367565 -0.5 0.0743048)
(-0.367565 0.1875 0.0743048)
(-0.370812 -0.5 0.0558909)
(-0.370812 0.1875 0.0558909)
(-0.373136 -0.5 0.0373379)
(-0.373136 0.1875 0.0373379)
(-0.374534 0.1875 0.0186922)
(-0.374534 -0.5 0.0186922)
(-0.375 0.1875 -1.28634e-15)
(-0.375 -0.5 -1.28634e-15)
(-0.374534 0.1875 -0.0186922)
(-0.374534 -0.5 -0.0186922)
(-0.373136 0.1875 -0.0373379)
(-0.373136 -0.5 -0.0373379)
(-0.370812 0.1875 -0.0558909)
(-0.370812 -0.5 -0.0558909)
(-0.367565 -0.5 -0.0743048)
(-0.367565 0.1875 -0.0743048)
(-0.363404 0.1875 -0.092534)
(-0.363404 -0.5 -0.092534)
(-0.35834 -0.5 -0.110533)
(-0.35834 0.1875 -0.110533)
(-0.352385 0.1875 -0.128258)
(-0.352385 -0.5 -0.128258)
(-0.345554 -0.5 -0.145663)
(-0.345554 0.1875 -0.145663)
(-0.337863 0.1875 -0.162706)
(-0.337863 -0.5 -0.162706)
(-0.329333 0.1875 -0.179345)
(-0.329333 -0.5 -0.179345)
(-0.319984 0.1875 -0.195538)
(-0.319984 -0.5 -0.195538)
(-0.309839 -0.5 -0.211245)
(-0.309839 0.1875 -0.211245)
(-0.298925 0.1875 -0.226427)
(-0.298925 -0.5 -0.226427)
(-0.287267 0.1875 -0.241045)
(-0.287267 -0.5 -0.241045)
(-0.274895 -0.5 -0.255065)
(-0.274895 0.1875 -0.255065)
(-0.261839 0.1875 -0.26845)
(-0.261839 -0.5 -0.26845)
(-0.248132 0.1875 -0.281168)
(-0.248132 -0.5 -0.281168)
(-0.233809 0.1875 -0.293187)
(-0.233809 -0.5 -0.293187)
(-0.218904 -0.5 -0.304477)
(-0.218904 0.1875 -0.304477)
(-0.203455 -0.5 -0.31501)
(-0.203455 0.1875 -0.31501)
(-0.1875 -0.5 -0.32476)
(-0.1875 0.1875 -0.32476)
(-0.171079 -0.5 -0.333702)
(-0.171079 0.1875 -0.333702)
(-0.154233 -0.5 -0.341815)
(-0.154233 0.1875 -0.341815)
(-0.137003 -0.5 -0.349078)
(-0.119433 -0.5 -0.355473)
(-0.137003 0.1875 -0.349078)
(-0.119433 0.1875 -0.355473)
(-0.101565 0.1875 -0.360984)
(-0.101565 -0.5 -0.360984)
(-0.0834453 0.1875 -0.365598)
(-0.0834453 -0.5 -0.365598)
(-0.0651181 0.1875 -0.369303)
(-0.0651181 -0.5 -0.369303)
(-0.0466289 -0.5 -0.37209)
(-0.0466289 0.1875 -0.37209)
(-0.0280238 -0.5 -0.373951)
(-0.0280238 0.1875 -0.373951)
(-0.00934901 -0.5 -0.374883)
(-0.00934901 0.1875 -0.374883)
(0.00934901 0.1875 -0.374883)
(0.00934901 -0.5 -0.374883)
(0.0280238 0.1875 -0.373951)
(0.0280238 -0.5 -0.373951)
(0.0466289 0.1875 -0.37209)
(0.0466289 -0.5 -0.37209)
(0.0651181 0.1875 -0.369303)
(0.0651181 -0.5 -0.369303)
(0.0834453 0.1875 -0.365598)
(0.0834453 -0.5 -0.365598)
(0.101565 -0.5 -0.360984)
(0.119433 -0.5 -0.355473)
(0.101565 0.1875 -0.360984)
(0.119433 0.1875 -0.355473)
(0.137003 -0.5 -0.349078)
(0.137003 0.1875 -0.349078)
(0.154233 -0.5 -0.341815)
(0.171079 -0.5 -0.333702)
(0.154233 0.1875 -0.341815)
(0.171079 0.1875 -0.333702)
(0.1875 -0.5 -0.32476)
(0.203455 -0.5 -0.31501)
(0.1875 0.1875 -0.32476)
(0.203455 0.1875 -0.31501)
(0.218904 -0.5 -0.304477)
(0.233809 -0.5 -0.293187)
(0.218904 0.1875 -0.304477)
(0.233809 0.1875 -0.293187)
(0.248132 -0.5 -0.281168)
(0.248132 0.1875 -0.281168)
(0.261839 -0.5 -0.26845)
(0.261839 0.1875 -0.26845)
(0.274895 -0.5 -0.255065)
(0.274895 0.1875 -0.255065)
(0.287267 0.1875 -0.241045)
(0.287267 -0.5 -0.241045)
(0.298925 0.1875 -0.226427)
(0.298925 -0.5 -0.226427)
(0.309839 0.1875 -0.211245)
(0.309839 -0.5 -0.211245)
(0.319984 -0.5 -0.195538)
(0.319984 0.1875 -0.195538)
(0.329333 -0.5 -0.179345)
(0.329333 0.1875 -0.179345)
(0.337863 -0.5 -0.162706)
(0.337863 0.1875 -0.162706)
(0.345554 -0.5 -0.145663)
(0.352385 -0.5 -0.128258)
(0.345554 0.1875 -0.145663)
(0.352385 0.1875 -0.128258)
(0.35834 -0.5 -0.110533)
(0.35834 0.1875 -0.110533)
(0.363404 -0.5 -0.092534)
(0.363404 0.1875 -0.092534)
(0.367565 -0.5 -0.0743048)
(0.370812 -0.5 -0.0558909)
(0.367565 0.1875 -0.0743048)
(0.370812 0.1875 -0.0558909)
(0.373136 -0.5 -0.0373379)
(0.373136 0.1875 -0.0373379)
(0.374534 -0.5 -0.0186922)
(0.374534 0.1875 -0.0186922)
)

// edges

252
(
(0 1)
(2 3)
(4 2)
(1 5)
(6 4)
(5 7)
(8 6)
(7 9)
(10 8)
(9 11)
(12 10)
(13 12)
(11 14)
(14 15)
(16 13)
(15 17)
(18 16)
(17 19)
(20 18)
(21 20)
(19 22)
(22 23)
(23 24)
(25 21)
(24 26)
(27 25)
(26 28)
(29 27)
(30 29)
(28 31)
(32 30)
(31 33)
(34 32)
(35 34)
(33 36)
(36 37)
(37 38)
(39 35)
(40 39)
(38 41)
(42 40)
(43 42)
(41 44)
(44 45)
(46 43)
(45 47)
(48 46)
(47 49)
(50 48)
(49 51)
(52 50)
(51 53)
(54 52)
(53 55)
(56 54)
(57 56)
(55 58)
(58 59)
(60 57)
(59 61)
(62 60)
(63 62)
(61 64)
(65 63)
(64 66)
(66 67)
(68 65)
(67 69)
(70 68)
(69 71)
(72 70)
(71 73)
(74 72)
(75 74)
(73 76)
(76 77)
(78 75)
(77 79)
(79 80)
(81 78)
(80 82)
(83 81)
(84 83)
(82 85)
(86 84)
(85 87)
(87 88)
(89 86)
(90 89)
(88 91)
(92 90)
(91 93)
(93 94)
(95 92)
(96 95)
(94 97)
(98 96)
(99 98)
(97 100)
(100 101)
(102 99)
(101 103)
(104 102)
(103 105)
(106 104)
(107 106)
(105 108)
(108 109)
(110 107)
(109 111)
(112 110)
(111 113)
(114 112)
(113 115)
(116 114)
(115 117)
(118 116)
(117 119)
(120 118)
(119 121)
(122 120)
(121 123)
(123 124)
(125 122)
(124 126)
(127 125)
(126 128)
(129 127)
(128 130)
(131 129)
(130 132)
(133 131)
(134 133)
(132 135)
(135 136)
(137 134)
(138 137)
(136 139)
(139 140)
(141 138)
(142 141)
(140 143)
(143 144)
(145 142)
(144 146)
(147 145)
(146 148)
(149 147)
(150 149)
(148 151)
(151 152)
(153 150)
(152 154)
(155 153)
(156 155)
(154 157)
(157 158)
(159 156)
(158 160)
(161 159)
(160 162)
(163 161)
(164 163)
(162 165)
(166 164)
(165 167)
(168 166)
(167 169)
(170 168)
(169 171)
(172 170)
(171 173)
(174 172)
(175 174)
(173 176)
(176 177)
(177 178)
(179 175)
(178 180)
(181 179)
(180 182)
(183 181)
(184 183)
(182 185)
(186 184)
(185 187)
(188 186)
(187 189)
(189 190)
(191 188)
(190 192)
(193 191)
(192 194)
(195 193)
(194 196)
(197 195)
(196 198)
(199 197)
(200 199)
(201 200)
(198 202)
(202 203)
(204 201)
(203 205)
(206 204)
(207 206)
(205 208)
(208 209)
(210 207)
(211 210)
(209 212)
(212 213)
(214 211)
(215 214)
(213 216)
(216 217)
(218 215)
(217 219)
(220 218)
(219 221)
(222 220)
(221 223)
(223 224)
(225 222)
(224 226)
(227 225)
(226 228)
(229 227)
(230 229)
(228 231)
(232 230)
(231 233)
(234 232)
(233 235)
(236 234)
(237 236)
(235 238)
(238 239)
(240 237)
(239 241)
(242 240)
(241 243)
(244 242)
(245 244)
(243 246)
(246 247)
(248 245)
(247 249)
(250 248)
(249 251)
(3 250)
(251 0)
)

// concaveStart mixedStart nonFeatureStart
0 0 0
// internalStart flatStart openStart multipleStart
252 252 252 252
// normals

458
(
(0.999689 0 0.024933)
(0 1 0)
(0.999689 0 0.024933)
(0 -1 0)
(0.997204 0 0.0747305)
(0 -1 0)
(0.997204 0 0.0747305)
(0 1 0)
(0.99224 0 0.124338)
(0 -1 0)
(0.99224 0 0.124338)
(0 1 0)
(0.984807 0 0.17365)
(0.984807 0 0.17365)
(0.974928 0 0.222521)
(0 -1 0)
(0.974928 0 0.222521)
(0 1 0)
(0.962624 0 0.270842)
(0 -1 0)
(0.947927 0 0.318487)
(0 -1 0)
(0.962624 0 0.270842)
(0 1 0)
(0.947927 0 0.318487)
(0 1 0)
(0.930874 0 0.36534)
(0.930874 0 0.36534)
(0.911505 0 0.411288)
(0 -1 0)
(0.911505 0 0.411288)
(0 1 0)
(0.889872 0 0.45621)
(0.866026 0 0.499999)
(0 -1 0)
(0.889872 0 0.45621)
(0.866026 0 0.499999)
(0 1 0)
(0.840024 0 0.54255)
(0 1 0)
(0.840024 0 0.54255)
(0 -1 0)
(0.811941 0 0.583739)
(0.811941 0 0.583739)
(0.781832 0 0.62349)
(0 1 0)
(0.781832 0 0.62349)
(0 -1 0)
(0.749781 0 0.661686)
(0 -1 0)
(0.749781 0 0.661686)
(0 1 0)
(0.715866 0 0.698238)
(0 -1 0)
(0.715866 0 0.698238)
(0 1 0)
(0.680174 0 0.733051)
(0.642786 0 0.766046)
(0 -1 0)
(0.680174 0 0.733051)
(0.642786 0 0.766046)
(0 1 0)
(0.603806 0 0.797132)
(0 1 0)
(0.603806 0 0.797132)
(0 -1 0)
(0.563317 0 0.826241)
(0 -1 0)
(0.563317 0 0.826241)
(0 1 0)
(0.521436 0 0.85329)
(0.478254 0 0.878222)
(0 -1 0)
(0.521436 0 0.85329)
(0.478254 0 0.878222)
(0 1 0)
(0.433885 0 0.900968)
(0 -1 0)
(0.433885 0 0.900968)
(0 1 0)
(0.388436 0 0.921476)
(0.388436 0 0.921476)
(0.34202 0 0.939693)
(0 -1 0)
(0.34202 0 0.939693)
(0 1 0)
(0.294753 0 0.955574)
(0 -1 0)
(0.294753 0 0.955574)
(0 1 0)
(0.246759 0 0.969077)
(0 -1 0)
(0.246759 0 0.969077)
(0 1 0)
(0.198144 0 0.980173)
(0 -1 0)
(0.149043 0 0.988831)
(0 -1 0)
(0.198144 0 0.980173)
(0 1 0)
(0.149043 0 0.988831)
(0 1 0)
(0.0995663 0 0.995031)
(0 -1 0)
(0.0995663 0 0.995031)
(0 1 0)
(0.0498453 0 0.998757)
(0 -1 0)
(0 0 1)
(0 -1 0)
(0.0498453 0 0.998757)
(0 1 0)
(-0.0498453 0 0.998757)
(0 -1 0)
(-0 0 1)
(0 1 0)
(-0.0498453 0 0.998757)
(0 1 0)
(-0.0995663 0 0.995031)
(0 -1 0)
(-0.0995663 0 0.995031)
(0 1 0)
(-0.149043 0 0.988831)
(0 -1 0)
(-0.149043 0 0.988831)
(0 1 0)
(-0.198144 0 0.980173)
(0 -1 0)
(-0.198144 0 0.980173)
(0 1 0)
(-0.246759 0 0.969077)
(0 -1 0)
(-0.294753 0 0.955574)
(0 -1 0)
(-0.246759 0 0.969077)
(0 1 0)
(-0.294753 0 0.955574)
(0 1 0)
(-0.34202 0 0.939693)
(0 -1 0)
(-0.34202 0 0.939693)
(0 1 0)
(-0.388436 0 0.921476)
(0 1 0)
(-0.388436 0 0.921476)
(0 -1 0)
(-0.433885 0 0.900968)
(0 1 0)
(-0.433885 0 0.900968)
(0 -1 0)
(-0.478254 0 0.878222)
(0 -1 0)
(-0.478254 0 0.878222)
(0 1 0)
(-0.521436 0 0.85329)
(0 -1 0)
(-0.521436 0 0.85329)
(0 1 0)
(-0.563317 0 0.826241)
(0 1 0)
(-0.563317 0 0.826241)
(0 -1 0)
(-0.603806 0 0.797132)
(0 -1 0)
(-0.603806 0 0.797132)
(0 1 0)
(-0.642786 0 0.766046)
(0 -1 0)
(-0.642786 0 0.766046)
(0 1 0)
(-0.680174 0 0.733051)
(0 1 0)
(-0.680174 0 0.733051)
(0 -1 0)
(-0.715866 0 0.698238)
(0 -1 0)
(-0.715866 0 0.698238)
(0 1 0)
(-0.749781 0 0.661686)
(0 -1 0)
(-0.781832 0 0.62349)
(0 -1 0)
(-0.749781 0 0.661686)
(0 1 0)
(-0.781832 0 0.62349)
(0 1 0)
(-0.811941 0 0.583739)
(0 -1 0)
(-0.811941 0 0.583739)
(0 1 0)
(-0.840024 0 0.54255)
(0 -1 0)
(-0.840024 0 0.54255)
(0 1 0)
(-0.866026 0 0.499999)
(0 -1 0)
(-0.889872 0 0.45621)
(0 -1 0)
(-0.866026 0 0.499999)
(0 1 0)
(-0.889872 0 0.45621)
(0 1 0)
(-0.911505 0 0.411288)
(0 -1 0)
(-0.911505 0 0.411288)
(0 1 0)
(-0.930874 0 0.36534)
(0 -1 0)
(-0.930874 0 0.36534)
(0 1 0)
(-0.947927 0 0.318487)
(0 -1 0)
(-0.947927 0 0.318487)
(0 1 0)
(-0.962624 0 0.270842)
(0 -1 0)
(-0.962624 0 0.270842)
(0 1 0)
(-0.974928 0 0.222521)
(0 -1 0)
(-0.974928 0 0.222521)
(0 1 0)
(-0.984807 0 0.17365)
(0 -1 0)
(-0.984807 0 0.17365)
(0 1 0)
(-0.99224 0 0.124338)
(0 -1 0)
(-0.99224 0 0.124338)
(0 1 0)
(-0.997204 0 0.0747305)
(0 1 0)
(-0.997204 0 0.0747305)
(0 -1 0)
(-0.999689 0 0.024933)
(0 1 0)
(-0.999689 0 0.024933)
(0 -1 0)
(-0.999689 0 -0.024933)
(0 1 0)
(-0.999689 -0 -0.024933)
(0 -1 0)
(-0.997204 0 -0.0747305)
(0 1 0)
(-0.997204 -0 -0.0747305)
(0 -1 0)
(-0.99224 0 -0.124338)
(0 1 0)
(-0.99224 -0 -0.124338)
(0 -1 0)
(-0.984807 -0 -0.17365)
(0 -1 0)
(-0.984807 -0 -0.17365)
(0 1 0)
(-0.974928 0 -0.222521)
(0 1 0)
(-0.974928 -0 -0.222521)
(0 -1 0)
(-0.962624 -0 -0.270842)
(0 -1 0)
(-0.962624 -0 -0.270842)
(0 1 0)
(-0.947927 0 -0.318487)
(0 1 0)
(-0.947927 -0 -0.318487)
(0 -1 0)
(-0.930874 -0 -0.36534)
(-0.930874 -0 -0.36534)
(-0.911505 0 -0.411288)
(0 1 0)
(-0.911505 -0 -0.411288)
(0 -1 0)
(-0.889872 0 -0.45621)
(0 1 0)
(-0.889872 -0 -0.45621)
(0 -1 0)
(-0.866026 0 -0.499999)
(-0.866026 -0 -0.499999)
(-0.840024 -0 -0.54255)
(0 -1 0)
(-0.840024 -0 -0.54255)
(0 1 0)
(-0.811941 0 -0.583739)
(0 1 0)
(-0.811941 -0 -0.583739)
(0 -1 0)
(-0.781832 0 -0.62349)
(-0.781832 -0 -0.62349)
(-0.749781 -0 -0.661686)
(0 -1 0)
(-0.749781 -0 -0.661686)
(0 1 0)
(-0.715866 0 -0.698238)
(0 1 0)
(-0.715866 -0 -0.698238)
(0 -1 0)
(-0.680174 0 -0.733051)
(0 1 0)
(-0.680174 -0 -0.733051)
(0 -1 0)
(-0.642786 0 -0.766046)
(-0.642786 -0 -0.766046)
(-0.603806 -0 -0.797132)
(0 -1 0)
(-0.603806 -0 -0.797132)
(0 1 0)
(-0.563317 -0 -0.826241)
(0 -1 0)
(-0.563317 0 -0.826241)
(0 1 0)
(-0.521436 -0 -0.85329)
(-0.521436 -0 -0.85329)
(-0.478254 -0 -0.878222)
(0 -1 0)
(-0.478254 0 -0.878222)
(0 1 0)
(-0.433885 -0 -0.900968)
(0 -1 0)
(-0.433885 0 -0.900968)
(0 1 0)
(-0.388436 -0 -0.921476)
(0 -1 0)
(-0.34202 -0 -0.939693)
(-0.388436 0 -0.921476)
(0 1 0)
(-0.34202 -0 -0.939693)
(-0.294753 0 -0.955574)
(0 1 0)
(-0.294753 -0 -0.955574)
(0 -1 0)
(-0.246759 0 -0.969077)
(-0.246759 -0 -0.969077)
(-0.198144 0 -0.980173)
(0 1 0)
(-0.198144 -0 -0.980173)
(0 -1 0)
(-0.149043 -0 -0.988831)
(0 -1 0)
(-0.149043 -0 -0.988831)
(0 1 0)
(-0.0995663 -0 -0.995031)
(-0.0995663 -0 -0.995031)
(-0.0498453 -0 -0.998757)
(0 -1 0)
(-0.0498453 -0 -0.998757)
(0 1 0)
(-0 0 -1)
(0 -0 -1)
(0.0498453 0 -0.998757)
(0 1 0)
(0.0498453 0 -0.998757)
(-0 -1 0)
(0.0995663 0 -0.995031)
(0 1 0)
(0.0995663 0 -0.995031)
(-0 -1 0)
(0.149043 0 -0.988831)
(0 1 0)
(0.149043 0 -0.988831)
(0 -1 0)
(0.198144 0 -0.980173)
(0 1 0)
(0.198144 0 -0.980173)
(0 -1 0)
(0.246759 0 -0.969077)
(0 -1 0)
(0.294753 0 -0.955574)
(0.246759 0 -0.969077)
(0 1 0)
(0.294753 0 -0.955574)
(0.34202 0 -0.939693)
(0 -1 0)
(0.34202 0 -0.939693)
(0 1 0)
(0.388436 0 -0.921476)
(0 -1 0)
(0.433885 0 -0.900968)
(0 -1 0)
(0.388436 0 -0.921476)
(0 1 0)
(0.433885 0 -0.900968)
(0 1 0)
(0.478254 0 -0.878222)
(0.521436 0 -0.85329)
(0 -1 0)
(0.478254 0 -0.878222)
(0.521436 0 -0.85329)
(0 1 0)
(0.563317 0 -0.826241)
(0 -1 0)
(0.603806 0 -0.797132)
(0 -1 0)
(0.563317 0 -0.826241)
(0 1 0)
(0.603806 0 -0.797132)
(0 1 0)
(0.642786 0 -0.766046)
(0.642786 0 -0.766046)
(0.680174 0 -0.733051)
(0 -1 0)
(0.680174 0 -0.733051)
(0 1 0)
(0.715866 0 -0.698238)
(0 -1 0)
(0.715866 0 -0.698238)
(0 1 0)
(0.749781 0 -0.661686)
(0 1 0)
(0.749781 0 -0.661686)
(0 -1 0)
(0.781832 0 -0.62349)
(0.781832 0 -0.62349)
(0.811941 0 -0.583739)
(0 1 0)
(0.811941 0 -0.583739)
(0 -1 0)
(0.840024 0 -0.54255)
(0 -1 0)
(0.840024 0 -0.54255)
(0 1 0)
(0.866026 0 -0.499999)
(0 -1 0)
(0.866026 0 -0.499999)
(0 1 0)
(0.889872 0 -0.45621)
(0.889872 0 -0.45621)
(0.911505 0 -0.411288)
(0 -1 0)
(0.930874 0 -0.36534)
(0 -1 0)
(0.911505 0 -0.411288)
(0 1 0)
(0.930874 0 -0.36534)
(0 1 0)
(0.947927 0 -0.318487)
(0 -1 0)
(0.947927 0 -0.318487)
(0 1 0)
(0.962624 0 -0.270842)
(0.962624 0 -0.270842)
(0.974928 0 -0.222521)
(0 -1 0)
(0.984807 0 -0.17365)
(0 -1 0)
(0.974928 0 -0.222521)
(0 1 0)
(0.984807 0 -0.17365)
(0 1 0)
(0.99224 0 -0.124338)
(0 -1 0)
(0.99224 0 -0.124338)
(0 1 0)
(0.997204 0 -0.0747305)
(0.997204 0 -0.0747305)
(0.999689 0 -0.024933)
(0 -1 0)
(0.999689 0 -0.024933)
(0 1 0)
)

// normal volume types

458
(
0
0
0
0
0
0
0
0
0
0
0
0
0
0
0
0
0
0
0
0
0
0
0
0
0
0
0
0
0
0
0
0
0
0
0
0
0
0
0
0
0
0
0
0
0
0
0
0
0
0
0
0
0
0
0
0
0
0
0
0
0
0
0
0
0
0
0
0
0
0
0
0
0
0
0
0
0
0
0
0
0
0
0
0
0
0
0
0
0
0
0
0
0
0
0
0
0
0
0
0
0
0
0
0
0
0
0
0
0
0
0
0
0
0
0
0
0
0
0
0
0
0
0
0
0
0
0
0
0
0
0
0
0
0
0
0
0
0
0
0
0
0
0
0
0
0
0
0
0
0
0
0
0
0
0
0
0
0
0
0
0
0
0
0
0
0
0
0
0
0
0
0
0
0
0
0
0
0
0
0
0
0
0
0
0
0
0
0
0
0
0
0
0
0
0
0
0
0
0
0
0
0
0
0
0
0
0
0
0
0
0
0
0
0
0
0
0
0
0
0
0
0
0
0
0
0
0
0
0
0
0
0
0
0
0
0
0
0
0
0
0
0
0
0
0
0
0
0
0
0
0
0
0
0
0
0
0
0
0
0
0
0
0
0
0
0
0
0
0
0
0
0
0
0
0
0
0
0
0
0
0
0
0
0
0
0
0
0
0
0
0
0
0
0
0
0
0
0
0
0
0
0
0
0
0
0
0
0
0
0
0
0
0
0
0
0
0
0
0
0
0
0
0
0
0
0
0
0
0
0
0
0
0
0
0
0
0
0
0
0
0
0
0
0
0
0
0
0
0
0
0
0
0
0
0
0
0
0
0
0
0
0
0
0
0
0
0
0
0
0
0
0
0
0
0
0
0
0
0
0
0
0
0
0
0
0
0
0
0
0
0
0
0
0
0
0
0
0
0
0
0
0
0
0
0
0
0
0
0
0
0
0
0
0
0
0
0
0
0
0
0
0
0
0
0
0
0
0
0
0
0
0
0
0
0
0
0
0
0
0
0
0
0
0
0
0
0
0
0
0
0
0
0
0
0
0
0
0
)

// normalDirections

252
(
2(1 -1)
2(1 -1)
2(1 -1)
2(1 -1)
2(1 -1)
2(1 -1)
2(1 -1)
2(1 -1)
2(1 -1)
2(1 -1)
2(1 -1)
2(1 -1)
2(1 -1)
2(1 -1)
2(1 -1)
2(1 -1)
2(1 -1)
2(1 -1)
2(1 -1)
2(1 -1)
2(1 -1)
2(1 -1)
2(1 -1)
2(1 -1)
2(1 -1)
2(1 -1)
2(1 -1)
2(1 -1)
2(1 -1)
2(1 -1)
2(1 -1)
2(1 -1)
2(1 -1)
2(1 -1)
2(1 -1)
2(1 -1)
2(1 -1)
2(1 -1)
2(1 -1)
2(1 -1)
2(1 -1)
2(1 -1)
2(1 -1)
2(1 -1)
2(1 -1)
2(1 -1)
2(1 -1)
2(1 -1)
2(1 -1)
2(1 -1)
2(1 -1)
2(1 -1)
2(1 -1)
2(1 -1)
2(1 -1)
2(1 -1)
2(1 -1)
2(1 -1)
2(1 -1)
2(1 -1)
2(1 -1)
2(1 -1)
2(1 -1)
2(1 -1)
2(1 -1)
2(1 -1)
2(1 -1)
2(1 -1)
2(1 -1)
2(1 -1)
2(1 -1)
2(1 -1)
2(1 -1)
2(1 -1)
2(1 -1)
2(1 -1)
2(1 -1)
2(1 -1)
2(1 -1)
2(1 -1)
2(1 -1)
2(1 -1)
2(1 -1)
2(1 -1)
2(1 -1)
2(1 -1)
2(1 -1)
2(1 -1)
2(1 -1)
2(1 -1)
2(1 -1)
2(1 -1)
2(1 -1)
2(1 -1)
2(1 -1)
2(1 -1)
2(1 -1)
2(1 -1)
2(1 -1)
2(1 -1)
2(1 -1)
2(1 -1)
2(1 -1)
2(1 -1)
2(1 -1)
2(1 -1)
2(1 -1)
2(1 -1)
2(1 -1)
2(1 -1)
2(1 -1)
2(1 -1)
2(1 -1)
2(1 -1)
2(1 -1)
2(1 -1)
2(1 -1)
2(1 -1)
2(1 -1)
2(1 -1)
2(1 -1)
2(1 -1)
2(1 -1)
2(1 -1)
2(1 -1)
2(1 -1)
2(1 -1)
2(1 -1)
2(1 -1)
2(1 -1)
2(1 -1)
2(1 -1)
2(1 -1)
2(1 -1)
2(1 -1)
2(1 -1)
2(1 -1)
2(1 -1)
2(1 -1)
2(1 -1)
2(1 -1)
2(1 -1)
2(1 -1)
2(1 -1)
2(1 -1)
2(1 -1)
2(1 -1)
2(1 -1)
2(1 -1)
2(1 -1)
2(1 -1)
2(1 -1)
2(1 -1)
2(1 -1)
2(1 -1)
2(1 -1)
2(1 -1)
2(1 -1)
2(1 -1)
2(1 -1)
2(1 -1)
2(1 -1)
2(1 -1)
2(1 -1)
2(1 -1)
2(1 -1)
2(1 -1)
2(1 -1)
2(1 -1)
2(1 -1)
2(1 -1)
2(1 -1)
2(1 -1)
2(1 -1)
2(1 -1)
2(1 -1)
2(1 -1)
2(1 -1)
2(1 -1)
2(1 -1)
2(1 -1)
2(1 -1)
2(1 -1)
2(1 -1)
2(1 -1)
2(1 -1)
2(1 -1)
2(1 -1)
2(1 -1)
2(1 -1)
2(1 -1)
2(1 -1)
2(1 -1)
2(1 -1)
2(1 -1)
2(1 -1)
2(1 -1)
2(1 -1)
2(1 -1)
2(1 -1)
2(1 -1)
2(1 -1)
2(1 -1)
2(1 -1)
2(1 -1)
2(1 -1)
2(1 -1)
2(1 -1)
2(1 -1)
2(1 -1)
2(1 -1)
2(1 -1)
2(1 -1)
2(1 -1)
2(1 -1)
2(1 -1)
2(1 -1)
2(1 -1)
2(1 -1)
2(1 -1)
2(1 -1)
2(1 -1)
2(1 -1)
2(1 -1)
2(1 -1)
2(1 -1)
2(1 -1)
2(1 -1)
2(1 -1)
2(1 -1)
2(1 -1)
2(1 -1)
2(1 -1)
2(1 -1)
2(1 -1)
2(1 -1)
2(1 -1)
2(1 -1)
2(1 -1)
2(1 -1)
2(1 -1)
2(1 -1)
2(1 -1)
2(1 -1)
2(1 -1)
2(1 -1)
2(1 -1)
2(1 -1)
2(1 -1)
2(1 -1)
2(1 -1)
2(1 -1)
)

// edgeNormals

252
(
2(0 1)
2(2 3)
2(4 5)
2(6 7)
2(8 9)
2(10 11)
2(12 9)
2(13 11)
2(14 15)
2(16 17)
2(18 19)
2(20 21)
2(22 23)
2(24 25)
2(26 21)
2(27 25)
2(28 29)
2(30 31)
2(32 29)
2(33 34)
2(35 31)
2(36 37)
2(38 39)
2(40 41)
2(42 39)
2(43 41)
2(44 45)
2(46 47)
2(48 49)
2(50 51)
2(52 53)
2(54 55)
2(56 53)
2(57 58)
2(59 55)
2(60 61)
2(62 63)
2(64 65)
2(66 67)
2(68 69)
2(70 67)
2(71 72)
2(73 69)
2(74 75)
2(76 77)
2(78 79)
2(80 77)
2(81 79)
2(82 83)
2(84 85)
2(86 87)
2(88 89)
2(90 91)
2(92 93)
2(94 95)
2(96 97)
2(98 99)
2(100 101)
2(102 103)
2(104 105)
2(106 107)
2(108 109)
2(110 111)
2(112 113)
2(114 115)
2(116 117)
2(118 119)
2(120 121)
2(122 123)
2(124 125)
2(126 127)
2(128 129)
2(130 131)
2(132 133)
2(134 135)
2(136 137)
2(138 139)
2(140 141)
2(142 143)
2(144 145)
2(146 147)
2(148 149)
2(150 151)
2(152 153)
2(154 155)
2(156 157)
2(158 159)
2(160 161)
2(162 163)
2(164 165)
2(166 167)
2(168 169)
2(170 171)
2(172 173)
2(174 175)
2(176 177)
2(178 179)
2(180 181)
2(182 183)
2(184 185)
2(186 187)
2(188 189)
2(190 191)
2(192 193)
2(194 195)
2(196 197)
2(198 199)
2(200 201)
2(202 203)
2(204 205)
2(206 207)
2(208 209)
2(210 211)
2(212 213)
2(214 215)
2(216 217)
2(218 219)
2(220 221)
2(222 223)
2(224 225)
2(226 227)
2(228 229)
2(230 231)
2(232 233)
2(234 235)
2(236 237)
2(238 239)
2(240 241)
2(242 243)
2(244 245)
2(246 247)
2(248 249)
2(250 251)
2(252 253)
2(254 255)
2(256 257)
2(258 259)
2(260 261)
2(262 263)
2(264 265)
2(266 265)
2(267 263)
2(268 269)
2(270 271)
2(272 273)
2(274 275)
2(276 273)
2(277 275)
2(278 279)
2(280 281)
2(282 283)
2(284 285)
2(286 283)
2(287 285)
2(288 289)
2(290 291)
2(292 293)
2(294 295)
2(296 297)
2(298 299)
2(300 297)
2(301 299)
2(302 303)
2(304 305)
2(306 307)
2(308 309)
2(310 307)
2(311 309)
2(312 313)
2(314 315)
2(316 317)
2(318 319)
2(320 321)
2(322 321)
2(323 324)
2(325 324)
2(326 327)
2(328 329)
2(330 327)
2(331 329)
2(332 333)
2(334 335)
2(336 337)
2(338 339)
2(340 337)
2(341 339)
2(342 343)
2(344 345)
2(346 345)
2(347 343)
2(348 349)
2(350 351)
2(352 353)
2(354 355)
2(356 357)
2(358 359)
2(360 361)
2(362 363)
2(364 365)
2(366 365)
2(367 368)
2(369 368)
2(370 371)
2(372 373)
2(374 375)
2(376 377)
2(378 379)
2(380 381)
2(382 377)
2(383 384)
2(385 381)
2(386 387)
2(388 389)
2(390 391)
2(392 393)
2(394 395)
2(396 391)
2(397 395)
2(398 399)
2(400 401)
2(402 403)
2(404 405)
2(406 407)
2(408 409)
2(410 407)
2(411 409)
2(412 413)
2(414 415)
2(416 417)
2(418 419)
2(420 421)
2(422 423)
2(424 421)
2(425 423)
2(426 427)
2(428 429)
2(430 431)
2(432 433)
2(434 435)
2(436 437)
2(438 435)
2(439 437)
2(440 441)
2(442 443)
2(444 445)
2(446 447)
2(448 449)
2(450 451)
2(452 449)
2(453 451)
2(454 455)
2(456 457)
)

// featurePointNormals
0()
// featurePointEdges
0()
// regionEdges
0()


// ************************************************************************* //
