/*--------------------------------*- C++ -*----------------------------------*\
  =========                 |
  \\      /  F ield         | OpenFOAM: The Open Source CFD Toolbox
   \\    /   O peration     | Website:  https://openfoam.org
    \\  /    A nd           | Version:  13
     \\/     M anipulation  |
\*---------------------------------------------------------------------------*/
FoamFile
{
    format      ascii;
    class       extendedFeatureEdgeMesh;
    location    "constant/extendedFeatureEdgeMesh";
    object      propellerTip.extendedFeatureEdgeMesh;
}
// * * * * * * * * * * * * * * * * * * * * * * * * * * * * * * * * * * * * * //

// points

6040
(
(0.0975668 -0.00236943 0.00859215)
(0.097622 -0.00239547 0.0085872)
(0.0978952 -0.00241485 0.00851045)
(0.0977708 -0.00236886 0.0085597)
(0.0979488 -0.00240281 0.00851991)
(0.0979748 -0.00236884 0.00852596)
(0.0980975 -0.00237898 0.0085042)
(0.0981788 -0.00236909 0.00849086)
(0.0984422 -0.00233989 0.0084393)
(0.0987908 -0.00236894 0.00837751)
(0.099989 -0.00228633 0.00816398)
(0.0996069 -0.00235818 0.00821188)
(0.0994622 -0.00234134 0.00826327)
(0.100134 -0.00231417 0.00814718)
(0.100265 -0.00229994 0.00812463)
(0.100338 -0.00231461 0.00810902)
(0.10086 -0.00231035 0.00800871)
(0.100864 -0.00226093 0.0080091)
(0.101068 -0.00226056 0.0079769)
(0.101272 -0.00226087 0.00794351)
(0.10168 -0.00226264 0.00787284)
(0.102088 -0.00226433 0.00779691)
(0.102016 -0.00225007 0.00781257)
(0.105913 -0.00213453 0.00709438)
(0.103194 -0.00224271 0.00751738)
(0.103227 -0.00221511 0.00759403)
(0.103372 -0.00224115 0.00755858)
(0.103635 -0.00221779 0.00752005)
(0.104379 -0.00220886 0.0073821)
(0.104714 -0.00219829 0.00732259)
(0.104774 -0.0021725 0.00731216)
(0.105503 -0.00218426 0.00717796)
(0.105518 -0.00216569 0.00717924)
(0.105854 -0.00219301 0.00709135)
(0.106235 -0.00218282 0.00703077)
(0.106615 -0.00217088 0.00696911)
(0.10659 -0.00214571 0.00698463)
(0.107116 -0.00212937 0.00688798)
(0.107184 -0.00215701 0.00686984)
(0.10724 -0.00214157 0.00686633)
(0.107404 -0.00215893 0.00682363)
(0.107628 -0.00213193 0.00679648)
(0.107681 -0.00214939 0.00677912)
(0.107738 -0.00213438 0.00677592)
(0.107845 -0.00215701 0.00672807)
(0.108072 -0.00210695 0.00671122)
(0.108225 -0.00214827 0.00664319)
(0.108219 -0.00212556 0.0066889)
(0.10854 -0.00213467 0.00662497)
(0.108954 -0.00212663 0.00655164)
(0.109128 -0.00211858 0.00652272)
(0.109943 -0.00208679 0.00637185)
(0.110584 -0.00208037 0.00625395)
(0.120452 -0.00217441 0.0044523)
(0.12027 -0.00215434 0.00448693)
(0.1235 -0.00221335 0.00325574)
(0.123273 -0.0022238 0.00341645)
(0.016365 -0.00446235 0.0111872)
(0.018015 -0.00478087 0.011038)
(0.0181141 -0.00479245 0.0110153)
(0.0182063 -0.00479525 0.0110608)
(0.0183994 -0.00481594 0.0110615)
(0.0191441 -0.00490384 0.0110471)
(0.0194085 -0.00499382 0.0110221)
(0.0196164 -0.00503659 0.011009)
(0.0203926 -0.00517188 0.0109894)
(0.0208099 -0.00524368 0.0109697)
(0.0215353 -0.00532879 0.0110324)
(0.021553 -0.00536222 0.0110006)
(0.0217911 -0.00540089 0.0110064)
(0.021919 -0.00542337 0.0109898)
(0.0221398 -0.00544623 0.0110367)
(0.0224891 -0.00548374 0.0110653)
(0.0236102 -0.00568729 0.0110767)
(0.0240434 -0.00575249 0.0111114)
(0.0238596 -0.00571656 0.0111388)
(0.0239845 -0.00571745 0.0111645)
(0.0241684 -0.00577248 0.0111446)
(0.0242934 -0.00578209 0.0111773)
(0.0250774 -0.00590182 0.0112122)
(0.025245 -0.00592298 0.0112784)
(0.0255257 -0.0059454 0.0113315)
(0.0260335 -0.00603337 0.0113847)
(0.0270655 -0.00616544 0.0115601)
(0.028183 -0.00625449 0.0117996)
(0.0284384 -0.00631659 0.0118498)
(0.0285535 -0.00631648 0.0118801)
(0.0299172 -0.00640587 0.0121701)
(0.0300699 -0.00645264 0.0121906)
(0.0301506 -0.00642997 0.0122159)
(0.0303438 -0.00646269 0.0122424)
(0.0306987 -0.0064456 0.0123179)
(0.0318948 -0.00643259 0.0125271)
(0.0329351 -0.00642599 0.012697)
(0.0332907 -0.00642237 0.0127514)
(0.033612 -0.00641473 0.0127981)
(0.0336266 -0.0064586 0.0127975)
(0.0337263 -0.00644347 0.0128176)
(0.0337332 -0.00647965 0.0127855)
(0.033795 -0.00644934 0.0128255)
(0.0340323 -0.00644493 0.0128602)
(0.0345311 -0.00636523 0.0129139)
(0.0350903 -0.00641384 0.0130126)
(0.0351057 -0.00639455 0.0130172)
(0.0356551 -0.00636209 0.0130897)
(0.0358068 -0.00636936 0.0131129)
(0.0363012 -0.00635482 0.0131778)
(0.0364452 -0.00637142 0.0131918)
(0.0367958 -0.00633894 0.01324)
(0.0371465 -0.00630516 0.0132794)
(0.037275 -0.00636624 0.0132408)
(0.0376249 -0.00627732 0.0133326)
(0.0387257 -0.00624817 0.0134587)
(0.0388594 -0.0062776 0.0133933)
(0.0388497 -0.00623382 0.0134714)
(0.0394247 -0.00618194 0.0135224)
(0.0393317 -0.00619232 0.0135159)
(0.0394128 -0.00622505 0.0135246)
(0.039661 -0.00619607 0.0135516)
(0.0398137 -0.00615198 0.0135539)
(0.040597 -0.00614158 0.0136365)
(0.0414479 -0.00613689 0.0136638)
(0.0417492 -0.00602486 0.0137062)
(0.0433276 -0.00596918 0.013838)
(0.043162 -0.00595079 0.0138193)
(0.0455414 -0.00581431 0.0139511)
(0.0457736 -0.00576292 0.0139461)
(0.0465872 -0.00568957 0.0139604)
(0.0463121 -0.00577442 0.0139772)
(0.04634 -0.00579447 0.0139632)
(0.0461865 -0.00581684 0.013918)
(0.047182 -0.00565909 0.0139912)
(0.0496974 -0.00545871 0.0140171)
(0.0506168 -0.00539261 0.0140222)
(0.050649 -0.00546095 0.0140371)
(0.0506843 -0.00540596 0.0140393)
(0.0508958 -0.00537743 0.0140288)
(0.0515774 -0.00531529 0.0140115)
(0.0508017 -0.00546505 0.0140194)
(0.0510251 -0.00537333 0.0140334)
(0.0511543 -0.00536997 0.014037)
(0.0518359 -0.00530544 0.0140208)
(0.0520121 -0.00532659 0.0140348)
(0.0549277 -0.00507374 0.0139537)
(0.0550806 -0.0050667 0.0139519)
(0.0558683 -0.00500165 0.0139184)
(0.0559007 -0.00508237 0.0138849)
(0.0559316 -0.00505505 0.0139213)
(0.0572166 -0.00491143 0.0138655)
(0.0576355 -0.00485035 0.0138162)
(0.0575935 -0.0049397 0.013835)
(0.0576552 -0.00485488 0.0138227)
(0.0587526 -0.00480093 0.0137833)
(0.0587504 -0.00483149 0.0137826)
(0.0585778 -0.00479419 0.0137826)
(0.0591042 -0.00478926 0.0137637)
(0.0592811 -0.00476806 0.0137521)
(0.0621027 -0.00455578 0.0135509)
(0.0622357 -0.00458816 0.013528)
(0.0622796 -0.00453528 0.0135351)
(0.069593 -0.0039744 0.012796)
(0.0693611 -0.00400433 0.0128354)
(0.0711561 -0.00394751 0.0126054)
(0.0715335 -0.00386244 0.0125853)
(0.0718402 -0.00390343 0.0125021)
(0.0722175 -0.00383421 0.0125022)
(0.0723237 -0.00386587 0.0124571)
(0.0724062 -0.00378807 0.0124719)
(0.0724505 -0.00385795 0.0124106)
(0.0725492 -0.00383056 0.0124531)
(0.0736916 -0.00376699 0.0122437)
(0.0737741 -0.00373169 0.0123022)
(0.0738531 -0.00371839 0.0121429)
(0.0740158 -0.00370805 0.0122722)
(0.0742575 -0.00368435 0.012241)
(0.0744992 -0.00366074 0.0122086)
(0.0744875 -0.00368265 0.0120772)
(0.075625 -0.00362632 0.0120425)
(0.0757664 -0.00359703 0.0120362)
(0.0758666 -0.00360483 0.0120144)
(0.0767919 -0.00355086 0.0118779)
(0.076733 -0.00350468 0.011905)
(0.0770335 -0.00353023 0.0118495)
(0.0772339 -0.00352988 0.0117918)
(0.0777171 -0.00349465 0.0117372)
(0.077558 -0.00344599 0.0117886)
(0.0778585 -0.00347226 0.0117361)
(0.0777443 -0.00342447 0.0117582)
(0.0779587 -0.00347575 0.0117091)
(0.0783417 -0.00342908 0.0116746)
(0.0793668 -0.0033827 0.0115066)
(0.082411 -0.00316199 0.0110709)
(0.0968613 -0.00242326 0.00872002)
(0.0986421 -0.00238721 0.00838723)
(0.100542 -0.00231454 0.0080696)
(0.106729 -0.00213938 0.00695903)
(0.11041 -0.00210272 0.00628972)
(0.110488 -0.00212058 0.00622669)
(0.110481 -0.00207118 0.0062619)
(0.0198435 -0.00504733 0.0110261)
(0.02026 -0.00513744 0.0110084)
(0.0206393 -0.00514475 0.0110261)
(0.0215815 -0.0053007 0.0110383)
(0.0217094 -0.00534594 0.0110406)
(0.0222503 -0.00544532 0.0110549)
(0.0238302 -0.00568268 0.0111557)
(0.0261469 -0.00605547 0.0113777)
(0.0262022 -0.0060151 0.0114352)
(0.027345 -0.00615979 0.0116305)
(0.0274619 -0.00616768 0.0116521)
(0.0277131 -0.00622507 0.011699)
(0.0280174 -0.00620233 0.0117491)
(0.0279703 -0.00628449 0.0117243)
(0.0280598 -0.00623347 0.0117716)
(0.0279324 -0.00620343 0.011737)
(0.0286772 -0.0063362 0.0119054)
(0.0287925 -0.00633468 0.011934)
(0.029162 -0.00636923 0.012015)
(0.0327404 -0.00644733 0.0126689)
(0.033398 -0.00640382 0.0127575)
(0.034347 -0.00638617 0.0128964)
(0.0349784 -0.00640336 0.0129994)
(0.0352974 -0.00640559 0.0130419)
(0.0354569 -0.00640624 0.0130616)
(0.0359355 -0.00640547 0.0131149)
(0.0359377 -0.00633893 0.01312)
(0.03711 -0.00628505 0.0132598)
(0.037084 -0.00636573 0.0132546)
(0.0373062 -0.0063043 0.0133003)
(0.0373218 -0.00628867 0.0132959)
(0.0424659 -0.00601805 0.0137815)
(0.0461148 -0.00576567 0.0139724)
(0.0498736 -0.00547509 0.0140425)
(0.0535641 -0.00518487 0.0139986)
(0.0544891 -0.00513593 0.0139797)
(0.0577649 -0.00484182 0.0138107)
(0.0589273 -0.00481047 0.0137738)
(0.0589295 -0.00478016 0.0137698)
(0.0713448 -0.00390958 0.0126059)
(0.0716868 -0.00389404 0.012559)
(0.0794721 -0.00338023 0.0114808)
(0.0828023 -0.00316684 0.010987)
(0.0961792 -0.00245208 0.00883821)
(0.101125 -0.00230202 0.00789481)
(0.119305 -0.002145 0.00467628)
(0.119889 -0.00215591 0.00456696)
(0.120107 -0.00218573 0.004496)
(0.016273 -0.00449527 0.0111468)
(0.0240322 -0.00569539 0.0111746)
(0.024636 -0.00581505 0.0112271)
(0.0249359 -0.00586089 0.011259)
(0.025483 -0.00590931 0.0113332)
(0.0278725 -0.00626517 0.011653)
(0.0286281 -0.00635277 0.0118783)
(0.0289249 -0.00637313 0.0119534)
(0.034132 -0.00642853 0.012878)
(0.0344004 -0.00640039 0.0129137)
(0.0346597 -0.00640034 0.0129531)
(0.0374973 -0.00627294 0.0133103)
(0.0538622 -0.00518419 0.0139978)
(0.0716574 -0.0038672 0.012572)
(0.0830884 -0.00312006 0.0109669)
(0.08354 -0.00309235 0.0108972)
(0.111332 -0.00210397 0.0061189)
(0.111423 -0.00211894 0.00607455)
(0.111523 -0.00211506 0.00607252)
(0.119497 -0.00216198 0.00463923)
(0.119588 -0.00217671 0.00459983)
(0.119688 -0.00217548 0.00459427)
(0.119697 -0.00214011 0.00459766)
(0.0187867 -0.00486747 0.0110534)
(0.0224161 -0.00543654 0.0110669)
(0.0225793 -0.00545975 0.0110739)
(0.0232437 -0.00557998 0.0111137)
(0.0246656 -0.00584304 0.0112043)
(0.07225 -0.00380833 0.0124958)
(0.0944193 -0.00254034 0.00905639)
(0.0943744 -0.00252518 0.00914597)
(0.111432 -0.00208712 0.00610326)
(0.111532 -0.00207175 0.00607789)
(0.112307 -0.00208474 0.00594355)
(0.112206 -0.00210095 0.00595924)
(0.11269 -0.00211213 0.00586013)
(0.116971 -0.00211078 0.00509442)
(0.117353 -0.00213998 0.00501325)
(0.119205 -0.00215677 0.00469249)
(0.119597 -0.00215037 0.00462251)
(0.0229676 -0.00555987 0.0110905)
(0.0858202 -0.00298963 0.0104998)
(0.0867232 -0.00293698 0.0103559)
(0.0895742 -0.00277124 0.00990458)
(0.0904656 -0.00270485 0.00977311)
(0.0919966 -0.00265611 0.00947687)
(0.0925911 -0.00263026 0.00939887)
(0.0927116 -0.00257721 0.00941508)
(0.0930426 -0.0026105 0.00932685)
(0.112985 -0.00209286 0.00581976)
(0.113856 -0.00211389 0.00564826)
(0.113765 -0.00208671 0.00567803)
(0.113867 -0.00206634 0.00564289)
(0.114247 -0.00210412 0.00558778)
(0.11463 -0.0021205 0.00549264)
(0.115022 -0.00211952 0.00543651)
(0.116975 -0.00209327 0.00508152)
(0.116579 -0.00212106 0.00516336)
(0.11765 -0.00212623 0.00497179)
(0.11852 -0.00215567 0.0048047)
(0.118429 -0.00213019 0.00483239)
(0.124152 -0.00214084 0.00255985)
(0.124473 -0.00210647 0.00208231)
(0.123087 -0.00221499 0.00356133)
(0.123809 -0.00219079 0.00297482)
(0.032512 -0.00648476 0.0126129)
(0.0454533 -0.00586048 0.0139275)
(0.123634 -0.00221149 0.00312514)
(0.123983 -0.00219048 0.00276456)
(0.124315 -0.00215588 0.0023116)
(0.124473 -0.00212075 0.00199831)
(0.124426 -0.00214246 0.00213901)
(0.0288848 -0.00633291 0.0118384)
(0.0300714 -0.00641449 0.0120824)
(0.0294942 -0.00643745 0.0120539)
(0.0293743 -0.00638638 0.0120605)
(0.0309242 -0.00648082 0.0122734)
(0.0316012 -0.0064742 0.0123854)
(0.124473 -0.000521115 -0.0049189)
(0.124473 -0.00060797 -0.00489352)
(0.121537 -0.00220081 0.0041895)
(0.121643 -0.0022133 0.00415091)
(0.121989 -0.00222226 0.00403372)
(0.122213 -0.00220822 0.00398089)
(0.122601 -0.00221208 0.00382338)
(0.123364 -0.00220518 0.00337114)
(0.124068 -0.00216865 0.00268199)
(0.124151 -0.00217455 0.00254833)
(0.124234 -0.00216059 0.00245955)
(0.0274037 -0.00618729 0.0115442)
(0.0277299 -0.00625542 0.011675)
(0.0291881 -0.00640686 0.0120012)
(0.0306498 -0.00647646 0.0122239)
(0.0305371 -0.00648483 0.0122559)
(0.0314529 -0.00649688 0.0123876)
(0.0313047 -0.00649416 0.0123974)
(0.031748 -0.00649482 0.0124748)
(0.0318963 -0.00649631 0.0124641)
(0.0321915 -0.00649301 0.01255)
(0.0323518 -0.00648924 0.0125818)
(0.03271 -0.00649206 0.0126018)
(0.0329841 -0.006472 0.0126965)
(0.0331219 -0.00648834 0.0126656)
(0.0333586 -0.00647822 0.012743)
(0.0345358 -0.0064646 0.0128874)
(0.0349168 -0.00645348 0.0129414)
(0.0350454 -0.00643076 0.0129209)
(0.0351071 -0.00643745 0.0129976)
(0.0352357 -0.00644172 0.0129732)
(0.0355753 -0.00643184 0.0130322)
(0.0373705 -0.00634885 0.0132938)
(0.0384777 -0.00627625 0.0134295)
(0.0384205 -0.00631096 0.0133759)
(0.04032 -0.0061966 0.0135902)
(0.0467346 -0.00577583 0.0139317)
(0.0467067 -0.00577707 0.0139576)
(0.0472828 -0.00573407 0.0139429)
(0.0511659 -0.00544052 0.0140105)
(0.0514245 -0.0054239 0.0139933)
(0.0523646 -0.00535223 0.0139824)
(0.0522707 -0.00532227 0.0140295)
(0.0524353 -0.00526518 0.0140175)
(0.0629411 -0.00453573 0.0134709)
(0.0636168 -0.0044933 0.0133455)
(0.0694214 -0.00407427 0.0128041)
(0.0698017 -0.00402815 0.0127845)
(0.0699563 -0.00402997 0.012754)
(0.0705745 -0.00399091 0.0126715)
(0.109367 -0.00211896 0.00647789)
(0.109715 -0.00210276 0.00641717)
(0.121155 -0.00220242 0.00428167)
(0.121746 -0.00218446 0.0041285)
(0.12249 -0.00222464 0.00386377)
(0.0266638 -0.0060856 0.0115078)
(0.0267616 -0.00611646 0.0115161)
(0.0272448 -0.00618829 0.0115928)
(0.0301672 -0.00646298 0.0121346)
(0.0315996 -0.00646927 0.0124745)
(0.0317472 -0.00645124 0.0125043)
(0.0318955 -0.00648396 0.0125153)
(0.0336335 -0.00648369 0.0127565)
(0.0352665 -0.00643577 0.0130144)
(0.036574 -0.0063944 0.0131747)
(0.0369555 -0.00633884 0.013259)
(0.0393557 -0.00626007 0.0134713)
(0.0398235 -0.00623359 0.0135159)
(0.0402102 -0.00619827 0.0135865)
(0.0404585 -0.00617174 0.0136181)
(0.0407069 -0.00614267 0.013645)
(0.0411751 -0.00611443 0.0136839)
(0.0431899 -0.00602433 0.0137937)
(0.0449213 -0.00590207 0.0138506)
(0.045066 -0.00589583 0.0138952)
(0.0458687 -0.00584008 0.0139076)
(0.0457919 -0.0058315 0.0139465)
(0.0464605 -0.00579644 0.0139252)
(0.0466001 -0.00576705 0.0139794)
(0.0471762 -0.00574226 0.013971)
(0.0470696 -0.00573219 0.0139933)
(0.047267 -0.00573255 0.0139807)
(0.0474326 -0.00567565 0.0140122)
(0.0474643 -0.00572313 0.0139628)
(0.04763 -0.00568354 0.0140113)
(0.0479023 -0.00564028 0.0140225)
(0.0480839 -0.00561111 0.0140234)
(0.0489484 -0.00559057 0.0140295)
(0.0495564 -0.00552255 0.0140434)
(0.0497091 -0.00553271 0.0140358)
(0.0498618 -0.00553666 0.014019)
(0.0509544 -0.00545967 0.0139962)
(0.0509075 -0.00545264 0.0140255)
(0.051072 -0.00539879 0.0140438)
(0.0513305 -0.00539452 0.0140402)
(0.0518476 -0.00538067 0.0140182)
(0.0521414 -0.0053245 0.0140328)
(0.0541602 -0.00518424 0.0139858)
(0.0553354 -0.00505575 0.0139473)
(0.055493 -0.00510931 0.0139156)
(0.0557432 -0.00503953 0.0139354)
(0.0561818 -0.00497763 0.0139053)
(0.0563393 -0.00503589 0.0138946)
(0.0565278 -0.00503456 0.0138586)
(0.0565586 -0.00500689 0.0138945)
(0.0569973 -0.00494321 0.0138803)
(0.0571548 -0.00498675 0.0138296)
(0.0573742 -0.00496538 0.0138335)
(0.0574359 -0.00488159 0.013846)
(0.0581623 -0.00490988 0.0137772)
(0.0579875 -0.00491442 0.0138081)
(0.058337 -0.00489519 0.0137445)
(0.0583988 -0.00484332 0.0138061)
(0.0596306 -0.00478374 0.0137156)
(0.0594559 -0.00477751 0.0137388)
(0.0599801 -0.00477247 0.0136508)
(0.0599844 -0.00474437 0.0137011)
(0.0603339 -0.00474507 0.0136421)
(0.0610457 -0.00462 0.0136268)
(0.0626323 -0.00450912 0.0135066)
(0.0630515 -0.00450038 0.0134739)
(0.0631618 -0.00446286 0.0134595)
(0.0632114 -0.00453129 0.013423)
(0.0634569 -0.00450707 0.0134159)
(0.0634321 -0.00447201 0.0134415)
(0.0647086 -0.00435941 0.0133258)
(0.0648988 -0.00433042 0.0133018)
(0.0650891 -0.0043041 0.0132734)
(0.0649112 -0.00436641 0.0133069)
(0.0651384 -0.00438078 0.0132076)
(0.0662798 -0.00426712 0.0131725)
(0.0658993 -0.0043216 0.0131935)
(0.0664947 -0.00428838 0.0131081)
(0.0664221 -0.00420943 0.0131463)
(0.06647 -0.00423735 0.0131548)
(0.0667095 -0.00425294 0.013031)
(0.067053 -0.00418516 0.0130933)
(0.0672802 -0.004231 0.013015)
(0.0672076 -0.00416213 0.0130725)
(0.0672555 -0.00419219 0.0130728)
(0.0676126 -0.00417513 0.0130325)
(0.0680533 -0.0041716 0.0129578)
(0.067993 -0.00411686 0.0129935)
(0.0680409 -0.00414704 0.0129854)
(0.0682311 -0.00411834 0.012969)
(0.0684103 -0.00414865 0.0129104)
(0.0683857 -0.00409468 0.012952)
(0.0685403 -0.00407149 0.0129317)
(0.0687551 -0.00411058 0.0128968)
(0.0689453 -0.00408443 0.0128849)
(0.0691833 -0.00408192 0.0128468)
(0.0695281 -0.00405898 0.0128056)
(0.0697182 -0.00405283 0.0127706)
(0.0699563 -0.00400598 0.0127723)
(0.0701109 -0.00398277 0.012757)
(0.0702654 -0.00398908 0.012734)
(0.0702654 -0.00395931 0.0127386)
(0.0970239 -0.00240256 0.00869207)
(0.0970792 -0.0024285 0.00867615)
(0.0974319 -0.00240225 0.00862039)
(0.0975148 -0.00242839 0.00857657)
(0.100015 -0.00234572 0.00812648)
(0.109889 -0.00211044 0.00638407)
(0.122628 -0.00222881 0.00379561)
(0.026425 -0.00608336 0.0113912)
(0.037848 -0.0063352 0.0132931)
(0.0379435 -0.00633048 0.0133037)
(0.0397852 -0.00618131 0.0135632)
(0.0413136 -0.00608301 0.0136943)
(0.0413622 -0.00610298 0.0135905)
(0.0419077 -0.00602056 0.0137233)
(0.0421515 -0.0060904 0.013693)
(0.0430244 -0.00601811 0.0138086)
(0.0455947 -0.00586005 0.013899)
(0.0455947 -0.00582589 0.0139508)
(0.0457361 -0.00578564 0.0139566)
(0.0472886 -0.00567863 0.014008)
(0.0509428 -0.00540089 0.0140436)
(0.0516244 -0.00533393 0.0140329)
(0.0518829 -0.00532874 0.0140355)
(0.0527756 -0.00532096 0.0139736)
(0.0531171 -0.00529446 0.0139723)
(0.0547084 -0.0051039 0.0139691)
(0.0546775 -0.00515141 0.0139667)
(0.0551949 -0.00511804 0.0139448)
(0.0556181 -0.00507913 0.0139337)
(0.0584553 -0.00488427 0.0137718)
(0.0636438 -0.00443754 0.0134219)
(0.0850189 0.00334787 -0.00844834)
(0.0644294 -0.00442148 0.0133434)
(0.0656968 -0.0043195 0.0132271)
(0.0656845 -0.00428329 0.0132312)
(0.0665412 -0.00420822 0.01314)
(0.0674457 -0.00416271 0.0130532)
(0.0880618 0.0030442 -0.00813979)
(0.0678507 -0.00417378 0.0129973)
(0.0697538 -0.00398152 0.0127935)
(0.0697924 -0.00397601 0.0127876)
(0.0733319 -0.00373536 0.0123597)
(0.0751829 -0.00363386 0.0121161)
(0.0764914 -0.00352766 0.0119395)
(0.0971931 0.00219174 -0.0070743)
(0.0768921 -0.00355124 0.011849)
(0.100236 0.00190119 -0.00672264)
(0.0800913 -0.00332288 0.0114143)
(0.0801325 -0.00328365 0.0114164)
(0.0812575 -0.00325325 0.0112357)
(0.0812987 -0.0032159 0.0112419)
(0.0814989 -0.00323309 0.0112032)
(0.0817404 -0.0032125 0.0111698)
(0.0818788 -0.00321821 0.0110723)
(0.0819612 -0.0032089 0.0111291)
(0.0820024 -0.00317179 0.0111349)
(0.103279 0.0016177 -0.00638051)
(0.106322 0.00134154 -0.00605634)
(0.109367 0.00106726 -0.00574974)
(0.0973091 -0.00239216 0.00864221)
(0.0983828 -0.00236936 0.00845438)
(0.106322 -0.00217949 0.00701811)
(0.0186935 -0.00489328 0.0110112)
(0.0228746 -0.00557419 0.0110296)
(0.0249085 -0.0058796 0.0112278)
(0.0376809 -0.00629801 0.013228)
(0.0416092 -0.00612488 0.0136542)
(0.0416634 -0.006124 0.0136757)
(0.0424629 -0.00604403 0.013682)
(0.0529505 -0.00528871 0.0140082)
(0.0547932 -0.00512927 0.0138509)
(0.0674812 -0.00413952 0.013042)
(0.0728131 -0.00383404 0.0123756)
(0.0727984 -0.00382239 0.0124135)
(0.0731108 -0.0037382 0.0123825)
(0.0732774 -0.00376757 0.0122377)
(0.0732219 -0.00379925 0.0123029)
(0.0735088 -0.00375019 0.0122051)
(0.0786245 -0.0033663 0.0116322)
(0.0788454 -0.00336389 0.0116051)
(0.0796701 -0.00330715 0.0114834)
(0.0798086 -0.00336026 0.0114172)
(0.0798498 -0.0033434 0.0114459)
(0.079891 -0.00330555 0.0114531)
(0.080374 -0.00326203 0.0113787)
(0.0802916 -0.00332771 0.0113586)
(0.0807156 -0.00324961 0.0113296)
(0.0811986 -0.00320687 0.0112534)
(0.0816712 -0.00317443 0.0111803)
(-0.0345311 -0.00636523 -0.0129139)
(-0.124152 -0.00214084 -0.00255985)
(-0.124473 -0.00210647 -0.00208231)
(-0.123087 -0.00221499 -0.00356133)
(-0.123809 -0.00219079 -0.00297482)
(-0.032512 -0.00648476 -0.0126129)
(-0.0454533 -0.00586048 -0.0139275)
(-0.123273 -0.0022238 -0.00341645)
(-0.123634 -0.00221149 -0.00312514)
(-0.123983 -0.00219048 -0.00276456)
(-0.124315 -0.00215588 -0.0023116)
(-0.124473 -0.00212075 -0.00199831)
(-0.124426 -0.00214246 -0.00213901)
(-0.0294942 -0.00643745 -0.0120539)
(-0.0293743 -0.00638638 -0.0120605)
(-0.0296894 -0.00643336 -0.0121157)
(-0.0309242 -0.00648082 -0.0122734)
(-0.124473 -0.000521115 0.0049189)
(-0.124473 -0.00060797 0.00489352)
(-0.121537 -0.00220081 -0.0041895)
(-0.121643 -0.0022133 -0.00415091)
(-0.121989 -0.00222226 -0.00403372)
(-0.122213 -0.00220822 -0.00398089)
(-0.122601 -0.00221208 -0.00382338)
(-0.123364 -0.00220518 -0.00337114)
(-0.124068 -0.00216865 -0.00268199)
(-0.124151 -0.00217455 -0.00254833)
(-0.124234 -0.00216059 -0.00245955)
(-0.0274037 -0.00618729 -0.0115442)
(-0.0278725 -0.00626517 -0.011653)
(-0.0277299 -0.00625542 -0.011675)
(-0.0277131 -0.00622507 -0.011699)
(-0.0279703 -0.00628449 -0.0117243)
(-0.0286281 -0.00635277 -0.0118783)
(-0.0286942 -0.00636656 -0.011881)
(-0.0287925 -0.00633468 -0.011934)
(-0.029842 -0.00646179 -0.0121105)
(-0.0303438 -0.00646269 -0.0122424)
(-0.0306498 -0.00647646 -0.0122239)
(-0.0306987 -0.0064456 -0.0123179)
(-0.0305371 -0.00648483 -0.0122559)
(-0.0316012 -0.0064742 -0.0123854)
(-0.0314529 -0.00649688 -0.0123876)
(-0.0313047 -0.00649416 -0.0123974)
(-0.031748 -0.00649482 -0.0124748)
(-0.0318963 -0.00649631 -0.0124641)
(-0.0321915 -0.00649301 -0.01255)
(-0.0323518 -0.00648924 -0.0125818)
(-0.0331594 -0.00648957 -0.0126857)
(-0.0333586 -0.00647822 -0.012743)
(-0.034132 -0.00642853 -0.012878)
(-0.0345358 -0.0064646 -0.0128874)
(-0.0346597 -0.00640034 -0.0129531)
(-0.0349784 -0.00640336 -0.0129994)
(-0.0349168 -0.00645348 -0.0129414)
(-0.0350454 -0.00643076 -0.0129209)
(-0.0351071 -0.00643745 -0.0129976)
(-0.0355547 -0.00642614 -0.013005)
(-0.0356164 -0.0064065 -0.0130803)
(-0.037275 -0.00636624 -0.0132408)
(-0.037084 -0.00636573 -0.0132546)
(-0.0371465 -0.00630516 -0.0132794)
(-0.0373705 -0.00634885 -0.0132938)
(-0.0472828 -0.00573407 -0.0139429)
(-0.0511659 -0.00544052 -0.0140105)
(-0.0514245 -0.0054239 -0.0139933)
(-0.0520121 -0.00532659 -0.0140348)
(-0.0523646 -0.00535223 -0.0139824)
(-0.0522707 -0.00532227 -0.0140295)
(-0.0694214 -0.00407427 -0.0128041)
(-0.0698017 -0.00402815 -0.0127845)
(-0.0699563 -0.00402997 -0.012754)
(-0.070729 -0.00394961 -0.0126817)
(-0.108072 -0.00210695 -0.00671122)
(-0.108225 -0.00214827 -0.00664319)
(-0.108954 -0.00212663 -0.00655164)
(-0.109128 -0.00211858 -0.00652272)
(-0.109367 -0.00211896 -0.00647789)
(-0.109715 -0.00210276 -0.00641717)
(-0.11041 -0.00210272 -0.00628972)
(-0.121155 -0.00220242 -0.00428167)
(-0.121746 -0.00218446 -0.0041285)
(-0.12249 -0.00222464 -0.00386377)
(-0.1235 -0.00221335 -0.00325574)
(-0.0218009 -0.0053607 -0.0109367)
(-0.0269572 -0.00616199 -0.0115167)
(-0.0272448 -0.00618829 -0.0115928)
(-0.0274619 -0.00616768 -0.0116521)
(-0.0286772 -0.0063362 -0.0119054)
(-0.0300699 -0.00645264 -0.0121906)
(-0.0315996 -0.00646927 -0.0124745)
(-0.0317472 -0.00645124 -0.0125043)
(-0.0318955 -0.00648396 -0.0125153)
(-0.0327785 -0.00649301 -0.012627)
(-0.0328089 -0.00643234 -0.0126787)
(-0.0329841 -0.006472 -0.0126965)
(-0.0335957 -0.00647516 -0.0127783)
(-0.0336335 -0.00648369 -0.0127565)
(-0.033795 -0.00644934 -0.0128255)
(-0.0337332 -0.00647965 -0.0127855)
(-0.0340323 -0.00644493 -0.0128602)
(-0.0344004 -0.00640039 -0.0129137)
(-0.0352665 -0.00643577 -0.0130144)
(-0.035426 -0.00643325 -0.0130306)
(-0.0352974 -0.00640559 -0.0130419)
(-0.0359355 -0.00640547 -0.0131149)
(-0.0359664 -0.00637018 -0.0131342)
(-0.036574 -0.0063944 -0.0131747)
(-0.0364452 -0.00637142 -0.0131918)
(-0.0367958 -0.00633894 -0.01324)
(-0.0369555 -0.00633884 -0.013259)
(-0.0373062 -0.0063043 -0.0133003)
(-0.0374973 -0.00627294 -0.0133103)
(-0.0424659 -0.00601805 -0.0137815)
(-0.0431899 -0.00602433 -0.0137937)
(-0.0452317 -0.00588334 -0.0138718)
(-0.0458687 -0.00584008 -0.0139076)
(-0.0457919 -0.0058315 -0.0139465)
(-0.0467067 -0.00577707 -0.0139576)
(-0.0467346 -0.00577583 -0.0139317)
(-0.0471762 -0.00574226 -0.013971)
(-0.0470696 -0.00573219 -0.0139933)
(-0.047267 -0.00573255 -0.0139807)
(-0.0474326 -0.00567565 -0.0140122)
(-0.0474643 -0.00572313 -0.0139628)
(-0.04763 -0.00568354 -0.0140113)
(-0.0479023 -0.00564028 -0.0140225)
(-0.0480839 -0.00561111 -0.0140234)
(-0.0489484 -0.00559057 -0.0140295)
(-0.0495564 -0.00552255 -0.0140434)
(-0.0498736 -0.00547509 -0.0140425)
(-0.0498618 -0.00553666 -0.014019)
(-0.050649 -0.00546095 -0.0140371)
(-0.0509544 -0.00545967 -0.0139962)
(-0.0509075 -0.00545264 -0.0140255)
(-0.051072 -0.00539879 -0.0140438)
(-0.0513305 -0.00539452 -0.0140402)
(-0.0518476 -0.00538067 -0.0140182)
(-0.0521414 -0.0053245 -0.0140328)
(-0.0541602 -0.00518424 -0.0139858)
(-0.0551949 -0.00511804 -0.0139448)
(-0.0553354 -0.00505575 -0.0139473)
(-0.055493 -0.00510931 -0.0139156)
(-0.0557432 -0.00503953 -0.0139354)
(-0.0559316 -0.00505505 -0.0139213)
(-0.0559007 -0.00508237 -0.0138849)
(-0.0563393 -0.00503589 -0.0138946)
(-0.0565278 -0.00503456 -0.0138586)
(-0.0565586 -0.00500689 -0.0138945)
(-0.0569973 -0.00494321 -0.0138803)
(-0.0571548 -0.00498675 -0.0138296)
(-0.0572166 -0.00491143 -0.0138655)
(-0.0573742 -0.00496538 -0.0138335)
(-0.0574359 -0.00488159 -0.013846)
(-0.0576552 -0.00485488 -0.0138227)
(-0.0575935 -0.0049397 -0.013835)
(-0.0579875 -0.00491442 -0.0138081)
(-0.0581623 -0.00490988 -0.0137772)
(-0.0583988 -0.00484332 -0.0138061)
(-0.0589273 -0.00481047 -0.0137738)
(-0.0596306 -0.00478374 -0.0137156)
(-0.0592811 -0.00476806 -0.0137521)
(-0.0594559 -0.00477751 -0.0137388)
(-0.0598032 -0.00478439 -0.0136549)
(-0.0599844 -0.00474437 -0.0137011)
(-0.0603339 -0.00474507 -0.0136421)
(-0.0610457 -0.00462 -0.0136268)
(-0.0621027 -0.00455578 -0.0135509)
(-0.0622764 -0.00457914 -0.0135294)
(-0.062628 -0.00456428 -0.0134912)
(-0.0624544 -0.00454478 -0.0135231)
(-0.0626301 -0.00453912 -0.0135073)
(-0.0629839 -0.00449787 -0.01348)
(-0.0636168 -0.0044933 -0.0133455)
(-0.0641627 -0.00445374 -0.0133549)
(-0.064175 -0.0044607 -0.013317)
(-0.0645183 -0.00438958 -0.0133446)
(-0.0645307 -0.00442217 -0.0133265)
(-0.0647086 -0.00435941 -0.0133258)
(-0.0648988 -0.00433042 -0.0133018)
(-0.0649112 -0.00436641 -0.0133069)
(-0.0650891 -0.0043041 -0.0132734)
(-0.0655189 -0.00436105 -0.0132014)
(-0.0651384 -0.00438078 -0.0132076)
(-0.0662798 -0.00426712 -0.0131725)
(-0.0658993 -0.0043216 -0.0131935)
(-0.0664947 -0.00428838 -0.0131081)
(-0.0664221 -0.00420943 -0.0131463)
(-0.06647 -0.00423735 -0.0131548)
(-0.0667095 -0.00425294 -0.013031)
(-0.067053 -0.00418516 -0.0130933)
(-0.0672802 -0.004231 -0.013015)
(-0.0672076 -0.00416213 -0.0130725)
(-0.0672555 -0.00419219 -0.0130728)
(-0.0676126 -0.00417513 -0.0130325)
(-0.0680533 -0.0041716 -0.0129578)
(-0.067993 -0.00411686 -0.0129935)
(-0.0680409 -0.00414704 -0.0129854)
(-0.0682311 -0.00411834 -0.012969)
(-0.0684103 -0.00414865 -0.0129104)
(-0.0683857 -0.00409468 -0.012952)
(-0.0685403 -0.00407149 -0.0129317)
(-0.0687551 -0.00411058 -0.0128968)
(-0.0689453 -0.00408443 -0.0128849)
(-0.0691833 -0.00408192 -0.0128468)
(-0.0695281 -0.00405898 -0.0128056)
(-0.0697182 -0.00405283 -0.0127706)
(-0.0699563 -0.00400598 -0.0127723)
(-0.0701109 -0.00398277 -0.012757)
(-0.0702654 -0.00398908 -0.012734)
(-0.0702654 -0.00395931 -0.0127386)
(-0.0968613 -0.00242326 -0.00872002)
(-0.0970239 -0.00240256 -0.00869207)
(-0.0970792 -0.0024285 -0.00867615)
(-0.0974319 -0.00240225 -0.00862039)
(-0.0975148 -0.00242839 -0.00857657)
(-0.097622 -0.00239547 -0.0085872)
(-0.0975668 -0.00236943 -0.00859215)
(-0.0977326 -0.00242084 -0.00852429)
(-0.0987908 -0.00236894 -0.00837751)
(-0.100015 -0.00234572 -0.00812648)
(-0.0996069 -0.00235818 -0.00821188)
(-0.100134 -0.00231417 -0.00814718)
(-0.105854 -0.00219301 -0.00709135)
(-0.105913 -0.00213453 -0.00709438)
(-0.106235 -0.00218282 -0.00703077)
(-0.107845 -0.00215701 -0.00672807)
(-0.108219 -0.00212556 -0.0066889)
(-0.10854 -0.00213467 -0.00662497)
(-0.109943 -0.00208679 -0.00637185)
(-0.109889 -0.00211044 -0.00638407)
(-0.120452 -0.00217441 -0.0044523)
(-0.122628 -0.00222881 -0.00379561)
(-0.02264 -0.00551417 -0.0110691)
(-0.0267616 -0.00611646 -0.0115161)
(-0.0280598 -0.00623347 -0.0117716)
(-0.0284384 -0.00631659 -0.0118498)
(-0.0285535 -0.00631648 -0.0118801)
(-0.0318948 -0.00643259 -0.0125271)
(-0.0336266 -0.0064586 -0.0127975)
(-0.0350903 -0.00641384 -0.0130126)
(-0.0363012 -0.00635482 -0.0131778)
(-0.0373218 -0.00628867 -0.0132959)
(-0.0376571 -0.00633062 -0.0133315)
(-0.0376249 -0.00627732 -0.0133326)
(-0.0423901 -0.00603068 -0.0137766)
(-0.0430244 -0.00601811 -0.0138086)
(-0.043162 -0.00595079 -0.0138193)
(-0.0433276 -0.00596918 -0.013838)
(-0.0455947 -0.00586005 -0.013899)
(-0.0455414 -0.00581431 -0.0139511)
(-0.0455947 -0.00582589 -0.0139508)
(-0.0457361 -0.00578564 -0.0139566)
(-0.0457736 -0.00576292 -0.0139461)
(-0.0461148 -0.00576567 -0.0139724)
(-0.046387 -0.00572407 -0.013973)
(-0.04634 -0.00579447 -0.0139632)
(-0.047182 -0.00565909 -0.0139912)
(-0.0472886 -0.00567863 -0.014008)
(-0.0493618 -0.00555479 -0.0139439)
(-0.0496974 -0.00545871 -0.0140171)
(-0.0497091 -0.00553271 -0.0140358)
(-0.0508958 -0.00537743 -0.0140288)
(-0.0509428 -0.00540089 -0.0140436)
(-0.0511543 -0.00536997 -0.014037)
(-0.0515774 -0.00531529 -0.0140115)
(-0.0516244 -0.00533393 -0.0140329)
(-0.0518359 -0.00530544 -0.0140208)
(-0.0518829 -0.00532874 -0.0140355)
(-0.0525646 -0.00526172 -0.0140197)
(-0.0526939 -0.00525886 -0.0140208)
(-0.0538622 -0.00518419 -0.0139978)
(-0.0547084 -0.0051039 -0.0139691)
(-0.0546775 -0.00515141 -0.0139667)
(-0.0549277 -0.00507374 -0.0139537)
(-0.0556181 -0.00507913 -0.0139337)
(-0.0577649 -0.00484182 -0.0138107)
(-0.0584553 -0.00488427 -0.0137718)
(-0.0628059 -0.00453314 -0.0134903)
(-0.0629197 -0.00454888 -0.0134579)
(-0.0632114 -0.00453129 -0.013423)
(-0.0636438 -0.00443754 -0.0134219)