/*--------------------------------*- C++ -*----------------------------------*\
  =========                 |
  \\      /  F ield         | OpenFOAM: The Open Source CFD Toolbox
   \\    /   O peration     | Website:  https://openfoam.org
    \\  /    A nd           | Version:  13
     \\/     M anipulation  |
\*---------------------------------------------------------------------------*/
FoamFile
{
    format      ascii;
    class       featureEdgeMesh;
    location    "constant/triSurface";
    object      innerCylinder.eMesh;
}
// * * * * * * * * * * * * * * * * * * * * * * * * * * * * * * * * * * * * * //


// points:

190
(
(0.15 0.025 0)
(0.149672 0.025 0.00991359)
(0.149672 -0.025 0.00991359)
(0.15 -0.025 0)
(0.14869 -0.025 0.0197838)
(0.14869 0.025 0.0197838)
(0.147057 -0.025 0.0295676)
(0.147057 0.025 0.0295676)
(0.144781 -0.025 0.039222)
(0.144781 0.025 0.039222)
(0.141873 -0.025 0.0487049)
(0.141873 0.025 0.0487049)
(0.138343 -0.025 0.0579749)
(0.138343 0.025 0.0579749)
(0.134209 -0.025 0.0669913)
(0.134209 0.025 0.0669913)
(0.129488 -0.025 0.0757148)
(0.129488 0.025 0.0757148)
(0.124201 -0.025 0.0841073)
(0.124201 0.025 0.0841073)
(0.118371 -0.025 0.0921319)
(0.118371 0.025 0.0921319)
(0.112023 -0.025 0.0997537)
(0.112023 0.025 0.0997537)
(0.105186 -0.025 0.106939)
(0.105186 0.025 0.106939)
(0.0978879 -0.025 0.113657)
(0.0978879 0.025 0.113657)
(0.0901622 -0.025 0.119878)
(0.0901622 0.025 0.119878)
(0.0820422 -0.025 0.125575)
(0.0820422 0.025 0.125575)
(0.0735635 -0.025 0.130723)
(0.0735635 0.025 0.130723)
(0.0647632 -0.025 0.135299)
(0.0647632 0.025 0.135299)
(0.0556796 -0.025 0.139283)
(0.0556796 0.025 0.139283)
(0.0463526 -0.025 0.142659)
(0.0463526 0.025 0.142659)
(0.0368228 -0.025 0.14541)
(0.0368228 0.025 0.14541)
(0.0271321 -0.025 0.147526)
(0.0271321 0.025 0.147526)
(0.0173227 -0.025 0.148996)
(0.00743756 -0.025 0.149815)
(0.0173227 0.025 0.148996)
(-0.00248009 -0.025 0.14998)
(0.00743756 0.025 0.149815)
(-0.00248009 0.025 0.14998)
(-0.0123869 -0.025 0.149488)
(-0.0123869 0.025 0.149488)
(-0.0222395 -0.025 0.148342)
(-0.0222395 0.025 0.148342)
(-0.0319949 0.025 0.146548)
(-0.0319949 -0.025 0.146548)
(-0.0416104 0.025 0.144113)
(-0.0416104 -0.025 0.144113)
(-0.051044 0.025 0.141048)
(-0.051044 -0.025 0.141048)
(-0.0602543 0.025 0.137366)
(-0.0602543 -0.025 0.137366)
(-0.0692012 0.025 0.133083)
(-0.0692012 -0.025 0.133083)
(-0.0778454 0.025 0.128219)
(-0.0778454 -0.025 0.128219)
(-0.0861493 0.025 0.122794)
(-0.0861493 -0.025 0.122794)
(-0.0940764 -0.025 0.116832)
(-0.0940764 0.025 0.116832)
(-0.101592 0.025 0.110359)
(-0.101592 -0.025 0.110359)
(-0.108664 -0.025 0.103403)
(-0.11526 -0.025 0.0959953)
(-0.108664 0.025 0.103403)
(-0.11526 0.025 0.0959953)
(-0.121353 -0.025 0.0881678)
(-0.121353 0.025 0.0881678)
(-0.126914 -0.025 0.0799548)
(-0.131921 -0.025 0.0713921)
(-0.126914 0.025 0.0799548)
(-0.131921 0.025 0.0713921)
(-0.136351 -0.025 0.0625173)
(-0.140185 -0.025 0.0533691)
(-0.136351 0.025 0.0625173)
(-0.140185 0.025 0.0533691)
(-0.143405 -0.025 0.0439875)
(-0.143405 0.025 0.0439875)
(-0.145999 -0.025 0.0344136)
(-0.147954 -0.025 0.0246892)
(-0.145999 0.025 0.0344136)
(-0.147954 0.025 0.0246892)
(-0.149262 -0.025 0.0148568)
(-0.149918 -0.025 0.00495951)
(-0.149262 0.025 0.0148568)
(-0.149918 0.025 0.00495951)
(-0.149918 -0.025 -0.00495951)
(-0.149262 -0.025 -0.0148568)
(-0.149918 0.025 -0.00495951)
(-0.147954 -0.025 -0.0246892)
(-0.149262 0.025 -0.0148568)
(-0.147954 0.025 -0.0246892)
(-0.145999 -0.025 -0.0344136)
(-0.145999 0.025 -0.0344136)
(-0.143405 -0.025 -0.0439875)
(-0.143405 0.025 -0.0439875)
(-0.140185 0.025 -0.0533691)
(-0.140185 -0.025 -0.0533691)
(-0.136351 0.025 -0.0625173)
(-0.136351 -0.025 -0.0625173)
(-0.131921 -0.025 -0.0713921)
(-0.131921 0.025 -0.0713921)
(-0.126914 -0.025 -0.0799548)
(-0.126914 0.025 -0.0799548)
(-0.121353 0.025 -0.0881678)
(-0.121353 -0.025 -0.0881678)
(-0.11526 0.025 -0.0959953)
(-0.11526 -0.025 -0.0959953)
(-0.108664 0.025 -0.103403)
(-0.108664 -0.025 -0.103403)
(-0.101592 -0.025 -0.110359)
(-0.101592 0.025 -0.110359)
(-0.0940764 0.025 -0.116832)
(-0.0940764 -0.025 -0.116832)
(-0.0861493 0.025 -0.122794)
(-0.0861493 -0.025 -0.122794)
(-0.0778454 0.025 -0.128219)
(-0.0778454 -0.025 -0.128219)
(-0.0692012 0.025 -0.133083)
(-0.0692012 -0.025 -0.133083)
(-0.0602543 0.025 -0.137366)
(-0.0602543 -0.025 -0.137366)
(-0.051044 0.025 -0.141048)
(-0.051044 -0.025 -0.141048)
(-0.0416104 0.025 -0.144113)
(-0.0416104 -0.025 -0.144113)
(-0.0319949 0.025 -0.146548)
(-0.0319949 -0.025 -0.146548)
(-0.0222395 -0.025 -0.148342)
(-0.0222395 0.025 -0.148342)
(-0.0123869 0.025 -0.149488)
(-0.0123869 -0.025 -0.149488)
(-0.00248009 -0.025 -0.14998)
(-0.00248009 0.025 -0.14998)
(0.00743756 -0.025 -0.149815)
(0.00743756 0.025 -0.149815)
(0.0173227 -0.025 -0.148996)
(0.0173227 0.025 -0.148996)
(0.0271321 -0.025 -0.147526)
(0.0271321 0.025 -0.147526)
(0.0368228 -0.025 -0.14541)
(0.0368228 0.025 -0.14541)
(0.0463526 -0.025 -0.142659)
(0.0463526 0.025 -0.142659)
(0.0556796 -0.025 -0.139283)
(0.0556796 0.025 -0.139283)
(0.0647632 0.025 -0.135299)
(0.0647632 -0.025 -0.135299)
(0.0735635 0.025 -0.130723)
(0.0735635 -0.025 -0.130723)
(0.0820422 0.025 -0.125575)
(0.0820422 -0.025 -0.125575)
(0.0901622 0.025 -0.119878)
(0.0901622 -0.025 -0.119878)
(0.0978879 0.025 -0.113657)
(0.0978879 -0.025 -0.113657)
(0.105186 0.025 -0.106939)
(0.105186 -0.025 -0.106939)
(0.112023 0.025 -0.0997537)
(0.112023 -0.025 -0.0997537)
(0.118371 -0.025 -0.0921319)
(0.118371 0.025 -0.0921319)
(0.124201 0.025 -0.0841073)
(0.124201 -0.025 -0.0841073)
(0.129488 0.025 -0.0757148)
(0.129488 -0.025 -0.0757148)
(0.134209 0.025 -0.0669913)
(0.134209 -0.025 -0.0669913)
(0.138343 0.025 -0.0579749)
(0.138343 -0.025 -0.0579749)
(0.141873 -0.025 -0.0487049)
(0.141873 0.025 -0.0487049)
(0.144781 0.025 -0.039222)
(0.144781 -0.025 -0.039222)
(0.147057 -0.025 -0.0295676)
(0.147057 0.025 -0.0295676)
(0.14869 0.025 -0.0197838)
(0.14869 -0.025 -0.0197838)
(0.149672 0.025 -0.00991359)
(0.149672 -0.025 -0.00991359)
)


// edges:

190
(
(0 1)
(2 3)
(4 2)
(1 5)
(6 4)
(5 7)
(8 6)
(7 9)
(10 8)
(9 11)
(12 10)
(11 13)
(14 12)
(13 15)
(16 14)
(15 17)
(18 16)
(17 19)
(20 18)
(19 21)
(22 20)
(21 23)
(24 22)
(23 25)
(26 24)
(25 27)
(28 26)
(27 29)
(30 28)
(29 31)
(32 30)
(31 33)
(34 32)
(33 35)
(36 34)
(35 37)
(38 36)
(37 39)
(40 38)
(39 41)
(42 40)
(41 43)
(44 42)
(45 44)
(43 46)
(47 45)
(46 48)
(48 49)
(50 47)
(49 51)
(52 50)
(51 53)
(53 54)
(55 52)
(54 56)
(57 55)
(56 58)
(59 57)
(58 60)
(61 59)
(60 62)
(63 61)
(62 64)
(65 63)
(64 66)
(67 65)
(68 67)
(66 69)
(69 70)
(71 68)
(72 71)
(73 72)
(70 74)
(74 75)
(76 73)
(75 77)
(78 76)
(79 78)
(77 80)
(80 81)
(82 79)
(83 82)
(81 84)
(84 85)
(86 83)
(85 87)
(88 86)
(89 88)
(87 90)
(90 91)
(92 89)
(93 92)
(91 94)
(94 95)
(96 93)
(97 96)
(95 98)
(99 97)
(98 100)
(100 101)
(102 99)
(101 103)
(104 102)
(103 105)
(105 106)
(107 104)
(106 108)
(109 107)
(110 109)
(108 111)
(112 110)
(111 113)
(113 114)
(115 112)
(114 116)
(117 115)
(116 118)
(119 117)
(120 119)
(118 121)
(121 122)
(123 120)
(122 124)
(125 123)
(124 126)
(127 125)
(126 128)
(129 127)
(128 130)
(131 129)
(130 132)
(133 131)
(132 134)
(135 133)
(134 136)
(137 135)
(138 137)
(136 139)
(139 140)
(141 138)
(142 141)
(140 143)
(144 142)
(143 145)
(146 144)
(145 147)
(148 146)
(147 149)
(150 148)
(149 151)
(152 150)
(151 153)
(154 152)
(153 155)
(155 156)
(157 154)
(156 158)
(159 157)
(158 160)
(161 159)
(160 162)
(163 161)
(162 164)
(165 163)
(164 166)
(167 165)
(166 168)
(169 167)
(170 169)
(168 171)
(171 172)
(173 170)
(172 174)
(175 173)
(174 176)
(177 175)
(176 178)
(179 177)
(180 179)
(178 181)
(181 182)
(183 180)
(184 183)
(182 185)
(185 186)
(187 184)
(186 188)
(189 187)
(3 189)
(188 0)
)

// * * * * * * * * * * * * * * * * * * * * * * * * * * * * * * * * * * * * * //


// ************************************************************************* //
