/*--------------------------------*- C++ -*----------------------------------*\
  =========                 |
  \\      /  F ield         | OpenFOAM: The Open Source CFD Toolbox
   \\    /   O peration     | Website:  https://openfoam.org
    \\  /    A nd           | Version:  13
     \\/     M anipulation  |
\*---------------------------------------------------------------------------*/
FoamFile
{
    format      ascii;
    class       featureEdgeMesh;
    location    "constant/triSurface";
    object      outerCylinder.eMesh;
}
// * * * * * * * * * * * * * * * * * * * * * * * * * * * * * * * * * * * * * //


// points:

252
(
(0.375 0.1875 0)
(0.374534 0.1875 0.0186922)
(0.374534 -0.5 0.0186922)
(0.375 -0.5 0)
(0.373136 -0.5 0.0373379)
(0.373136 0.1875 0.0373379)
(0.370812 -0.5 0.0558909)
(0.370812 0.1875 0.0558909)
(0.367565 -0.5 0.0743048)
(0.367565 0.1875 0.0743048)
(0.363404 -0.5 0.092534)
(0.363404 0.1875 0.092534)
(0.35834 -0.5 0.110533)
(0.352385 -0.5 0.128258)
(0.35834 0.1875 0.110533)
(0.352385 0.1875 0.128258)
(0.345554 -0.5 0.145663)
(0.345554 0.1875 0.145663)
(0.337863 -0.5 0.162706)
(0.337863 0.1875 0.162706)
(0.329333 -0.5 0.179345)
(0.319984 -0.5 0.195538)
(0.329333 0.1875 0.179345)
(0.319984 0.1875 0.195538)
(0.309839 0.1875 0.211245)
(0.309839 -0.5 0.211245)
(0.298925 0.1875 0.226427)
(0.298925 -0.5 0.226427)
(0.287267 0.1875 0.241045)
(0.287267 -0.5 0.241045)
(0.274895 -0.5 0.255065)
(0.274895 0.1875 0.255065)
(0.261839 -0.5 0.26845)
(0.261839 0.1875 0.26845)
(0.248132 -0.5 0.281168)
(0.233809 -0.5 0.293187)
(0.248132 0.1875 0.281168)
(0.233809 0.1875 0.293187)
(0.218904 0.1875 0.304477)
(0.218904 -0.5 0.304477)
(0.203455 -0.5 0.31501)
(0.203455 0.1875 0.31501)
(0.1875 -0.5 0.32476)
(0.171079 -0.5 0.333702)
(0.1875 0.1875 0.32476)
(0.171079 0.1875 0.333702)
(0.154233 -0.5 0.341815)
(0.154233 0.1875 0.341815)
(0.137003 -0.5 0.349078)
(0.137003 0.1875 0.349078)
(0.119433 -0.5 0.355473)
(0.119433 0.1875 0.355473)
(0.101565 -0.5 0.360984)
(0.101565 0.1875 0.360984)
(0.0834453 -0.5 0.365598)
(0.0834453 0.1875 0.365598)
(0.0651181 -0.5 0.369303)
(0.0466289 -0.5 0.37209)
(0.0651181 0.1875 0.369303)
(0.0466289 0.1875 0.37209)
(0.0280238 -0.5 0.373951)
(0.0280238 0.1875 0.373951)
(0.00934901 -0.5 0.374883)
(-0.00934901 -0.5 0.374883)
(0.00934901 0.1875 0.374883)
(-0.0280238 -0.5 0.373951)
(-0.00934901 0.1875 0.374883)
(-0.0280238 0.1875 0.373951)
(-0.0466289 -0.5 0.37209)
(-0.0466289 0.1875 0.37209)
(-0.0651181 -0.5 0.369303)
(-0.0651181 0.1875 0.369303)
(-0.0834453 -0.5 0.365598)
(-0.0834453 0.1875 0.365598)
(-0.101565 -0.5 0.360984)
(-0.119433 -0.5 0.355473)
(-0.101565 0.1875 0.360984)
(-0.119433 0.1875 0.355473)
(-0.137003 -0.5 0.349078)
(-0.137003 0.1875 0.349078)
(-0.154233 0.1875 0.341815)
(-0.154233 -0.5 0.341815)
(-0.171079 0.1875 0.333702)
(-0.171079 -0.5 0.333702)
(-0.1875 -0.5 0.32476)
(-0.1875 0.1875 0.32476)
(-0.203455 -0.5 0.31501)
(-0.203455 0.1875 0.31501)
(-0.218904 0.1875 0.304477)
(-0.218904 -0.5 0.304477)
(-0.233809 -0.5 0.293187)
(-0.233809 0.1875 0.293187)
(-0.248132 -0.5 0.281168)
(-0.248132 0.1875 0.281168)
(-0.261839 0.1875 0.26845)
(-0.261839 -0.5 0.26845)
(-0.274895 -0.5 0.255065)
(-0.274895 0.1875 0.255065)
(-0.287267 -0.5 0.241045)
(-0.298925 -0.5 0.226427)
(-0.287267 0.1875 0.241045)
(-0.298925 0.1875 0.226427)
(-0.309839 -0.5 0.211245)
(-0.309839 0.1875 0.211245)
(-0.319984 -0.5 0.195538)
(-0.319984 0.1875 0.195538)
(-0.329333 -0.5 0.179345)
(-0.337863 -0.5 0.162706)
(-0.329333 0.1875 0.179345)
(-0.337863 0.1875 0.162706)
(-0.345554 -0.5 0.145663)
(-0.345554 0.1875 0.145663)
(-0.352385 -0.5 0.128258)
(-0.352385 0.1875 0.128258)
(-0.35834 -0.5 0.110533)
(-0.35834 0.1875 0.110533)
(-0.363404 -0.5 0.092534)
(-0.363404 0.1875 0.092534)
(-0.367565 -0.5 0.0743048)
(-0.367565 0.1875 0.0743048)
(-0.370812 -0.5 0.0558909)
(-0.370812 0.1875 0.0558909)
(-0.373136 -0.5 0.0373379)
(-0.373136 0.1875 0.0373379)
(-0.374534 0.1875 0.0186922)
(-0.374534 -0.5 0.0186922)
(-0.375 0.1875 -1.28634e-15)
(-0.375 -0.5 -1.28634e-15)
(-0.374534 0.1875 -0.0186922)
(-0.374534 -0.5 -0.0186922)
(-0.373136 0.1875 -0.0373379)
(-0.373136 -0.5 -0.0373379)
(-0.370812 0.1875 -0.0558909)
(-0.370812 -0.5 -0.0558909)
(-0.367565 -0.5 -0.0743048)
(-0.367565 0.1875 -0.0743048)
(-0.363404 0.1875 -0.092534)
(-0.363404 -0.5 -0.092534)
(-0.35834 -0.5 -0.110533)
(-0.35834 0.1875 -0.110533)
(-0.352385 0.1875 -0.128258)
(-0.352385 -0.5 -0.128258)
(-0.345554 -0.5 -0.145663)
(-0.345554 0.1875 -0.145663)
(-0.337863 0.1875 -0.162706)
(-0.337863 -0.5 -0.162706)
(-0.329333 0.1875 -0.179345)
(-0.329333 -0.5 -0.179345)
(-0.319984 0.1875 -0.195538)
(-0.319984 -0.5 -0.195538)
(-0.309839 -0.5 -0.211245)
(-0.309839 0.1875 -0.211245)
(-0.298925 0.1875 -0.226427)
(-0.298925 -0.5 -0.226427)
(-0.287267 0.1875 -0.241045)
(-0.287267 -0.5 -0.241045)
(-0.274895 -0.5 -0.255065)
(-0.274895 0.1875 -0.255065)
(-0.261839 0.1875 -0.26845)
(-0.261839 -0.5 -0.26845)
(-0.248132 0.1875 -0.281168)
(-0.248132 -0.5 -0.281168)
(-0.233809 0.1875 -0.293187)
(-0.233809 -0.5 -0.293187)
(-0.218904 -0.5 -0.304477)
(-0.218904 0.1875 -0.304477)
(-0.203455 -0.5 -0.31501)
(-0.203455 0.1875 -0.31501)
(-0.1875 -0.5 -0.32476)
(-0.1875 0.1875 -0.32476)
(-0.171079 -0.5 -0.333702)
(-0.171079 0.1875 -0.333702)
(-0.154233 -0.5 -0.341815)
(-0.154233 0.1875 -0.341815)
(-0.137003 -0.5 -0.349078)
(-0.119433 -0.5 -0.355473)
(-0.137003 0.1875 -0.349078)
(-0.119433 0.1875 -0.355473)
(-0.101565 0.1875 -0.360984)
(-0.101565 -0.5 -0.360984)
(-0.0834453 0.1875 -0.365598)
(-0.0834453 -0.5 -0.365598)
(-0.0651181 0.1875 -0.369303)
(-0.0651181 -0.5 -0.369303)
(-0.0466289 -0.5 -0.37209)
(-0.0466289 0.1875 -0.37209)
(-0.0280238 -0.5 -0.373951)
(-0.0280238 0.1875 -0.373951)
(-0.00934901 -0.5 -0.374883)
(-0.00934901 0.1875 -0.374883)
(0.00934901 0.1875 -0.374883)
(0.00934901 -0.5 -0.374883)
(0.0280238 0.1875 -0.373951)
(0.0280238 -0.5 -0.373951)
(0.0466289 0.1875 -0.37209)
(0.0466289 -0.5 -0.37209)
(0.0651181 0.1875 -0.369303)
(0.0651181 -0.5 -0.369303)
(0.0834453 0.1875 -0.365598)
(0.0834453 -0.5 -0.365598)
(0.101565 -0.5 -0.360984)
(0.119433 -0.5 -0.355473)
(0.101565 0.1875 -0.360984)
(0.119433 0.1875 -0.355473)
(0.137003 -0.5 -0.349078)
(0.137003 0.1875 -0.349078)
(0.154233 -0.5 -0.341815)
(0.171079 -0.5 -0.333702)
(0.154233 0.1875 -0.341815)
(0.171079 0.1875 -0.333702)
(0.1875 -0.5 -0.32476)
(0.203455 -0.5 -0.31501)
(0.1875 0.1875 -0.32476)
(0.203455 0.1875 -0.31501)
(0.218904 -0.5 -0.304477)
(0.233809 -0.5 -0.293187)
(0.218904 0.1875 -0.304477)
(0.233809 0.1875 -0.293187)
(0.248132 -0.5 -0.281168)
(0.248132 0.1875 -0.281168)
(0.261839 -0.5 -0.26845)
(0.261839 0.1875 -0.26845)
(0.274895 -0.5 -0.255065)
(0.274895 0.1875 -0.255065)
(0.287267 0.1875 -0.241045)
(0.287267 -0.5 -0.241045)
(0.298925 0.1875 -0.226427)
(0.298925 -0.5 -0.226427)
(0.309839 0.1875 -0.211245)
(0.309839 -0.5 -0.211245)
(0.319984 -0.5 -0.195538)
(0.319984 0.1875 -0.195538)
(0.329333 -0.5 -0.179345)
(0.329333 0.1875 -0.179345)
(0.337863 -0.5 -0.162706)
(0.337863 0.1875 -0.162706)
(0.345554 -0.5 -0.145663)
(0.352385 -0.5 -0.128258)
(0.345554 0.1875 -0.145663)
(0.352385 0.1875 -0.128258)
(0.35834 -0.5 -0.110533)
(0.35834 0.1875 -0.110533)
(0.363404 -0.5 -0.092534)
(0.363404 0.1875 -0.092534)
(0.367565 -0.5 -0.0743048)
(0.370812 -0.5 -0.0558909)
(0.367565 0.1875 -0.0743048)
(0.370812 0.1875 -0.0558909)
(0.373136 -0.5 -0.0373379)
(0.373136 0.1875 -0.0373379)
(0.374534 -0.5 -0.0186922)
(0.374534 0.1875 -0.0186922)
)


// edges:

252
(
(0 1)
(2 3)
(4 2)
(1 5)
(6 4)
(5 7)
(8 6)
(7 9)
(10 8)
(9 11)
(12 10)
(13 12)
(11 14)
(14 15)
(16 13)
(15 17)
(18 16)
(17 19)
(20 18)
(21 20)
(19 22)
(22 23)
(23 24)
(25 21)
(24 26)
(27 25)
(26 28)
(29 27)
(30 29)
(28 31)
(32 30)
(31 33)
(34 32)
(35 34)
(33 36)
(36 37)
(37 38)
(39 35)
(40 39)
(38 41)
(42 40)
(43 42)
(41 44)
(44 45)
(46 43)
(45 47)
(48 46)
(47 49)
(50 48)
(49 51)
(52 50)
(51 53)
(54 52)
(53 55)
(56 54)
(57 56)
(55 58)
(58 59)
(60 57)
(59 61)
(62 60)
(63 62)
(61 64)
(65 63)
(64 66)
(66 67)
(68 65)
(67 69)
(70 68)
(69 71)
(72 70)
(71 73)
(74 72)
(75 74)
(73 76)
(76 77)
(78 75)
(77 79)
(79 80)
(81 78)
(80 82)
(83 81)
(84 83)
(82 85)
(86 84)
(85 87)
(87 88)
(89 86)
(90 89)
(88 91)
(92 90)
(91 93)
(93 94)
(95 92)
(96 95)
(94 97)
(98 96)
(99 98)
(97 100)
(100 101)
(102 99)
(101 103)
(104 102)
(103 105)
(106 104)
(107 106)
(105 108)
(108 109)
(110 107)
(109 111)
(112 110)
(111 113)
(114 112)
(113 115)
(116 114)
(115 117)
(118 116)
(117 119)
(120 118)
(119 121)
(122 120)
(121 123)
(123 124)
(125 122)
(124 126)
(127 125)
(126 128)
(129 127)
(128 130)
(131 129)
(130 132)
(133 131)
(134 133)
(132 135)
(135 136)
(137 134)
(138 137)
(136 139)
(139 140)
(141 138)
(142 141)
(140 143)
(143 144)
(145 142)
(144 146)
(147 145)
(146 148)
(149 147)
(150 149)
(148 151)
(151 152)
(153 150)
(152 154)
(155 153)
(156 155)
(154 157)
(157 158)
(159 156)
(158 160)
(161 159)
(160 162)
(163 161)
(164 163)
(162 165)
(166 164)
(165 167)
(168 166)
(167 169)
(170 168)
(169 171)
(172 170)
(171 173)
(174 172)
(175 174)
(173 176)
(176 177)
(177 178)
(179 175)
(178 180)
(181 179)
(180 182)
(183 181)
(184 183)
(182 185)
(186 184)
(185 187)
(188 186)
(187 189)
(189 190)
(191 188)
(190 192)
(193 191)
(192 194)
(195 193)
(194 196)
(197 195)
(196 198)
(199 197)
(200 199)
(201 200)
(198 202)
(202 203)
(204 201)
(203 205)
(206 204)
(207 206)
(205 208)
(208 209)
(210 207)
(211 210)
(209 212)
(212 213)
(214 211)
(215 214)
(213 216)
(216 217)
(218 215)
(217 219)
(220 218)
(219 221)
(222 220)
(221 223)
(223 224)
(225 222)
(224 226)
(227 225)
(226 228)
(229 227)
(230 229)
(228 231)
(232 230)
(231 233)
(234 232)
(233 235)
(236 234)
(237 236)
(235 238)
(238 239)
(240 237)
(239 241)
(242 240)
(241 243)
(244 242)
(245 244)
(243 246)
(246 247)
(248 245)
(247 249)
(250 248)
(249 251)
(3 250)
(251 0)
)

// * * * * * * * * * * * * * * * * * * * * * * * * * * * * * * * * * * * * * //


// ************************************************************************* //
