/*--------------------------------*- C++ -*----------------------------------*\
| =========                 |                                                 |
| \\      /  F ield         | OpenFOAM: The Open Source CFD Toolbox           |
|  \\    /   O peration     | Version:  2212                                  |
|   \\  /    A nd           | Website:  www.openfoam.com                      |
|    \\/     M anipulation  |                                                 |
\*---------------------------------------------------------------------------*/
FoamFile
{
    version     2.0;
    format      binary;
    class       volScalarField;
    location    "0";
    object      omega;
}
// * * * * * * * * * * * * * * * * * * * * * * * * * * * * * * * * * * * * * //

dimensions      [0 0 -1 0 0 0 0];

internalField   uniform 10;

boundaryField
{
    #includeEtc "caseDicts/setConstraintTypes"

    walls
    {
        type            zeroGradient;
    }
    inlet
    {
        type            fixedValue;
        value           uniform 10;
    }
    outlet
    {
        type            inletOutlet;
        inletValue      uniform 10;
        value           uniform 10;
    }
    innerCylinder
    {
    type            omegaWallFunction;
    value           uniform 100;
    }

    innerCylinder_slave
    {
    type            omegaWallFunction;
    value           uniform 100;
    }

    
    propellerTip
    {
        type            omegaWallFunction;
        value           uniform 100;
    }
}
// ************************************************************************* //
