/*--------------------------------*- C++ -*----------------------------------*\
  =========                 |
  \\      /  F ield         | OpenFOAM: The Open Source CFD Toolbox
   \\    /   O peration     | Website:  https://openfoam.org
    \\  /    A nd           | Version:  13
     \\/     M anipulation  |
\*---------------------------------------------------------------------------*/
FoamFile
{
    format      ascii;
    class       surfaceLabelField;
    location    "constant/fvMesh";
    object      polyFaces;
}
// * * * * * * * * * * * * * * * * * * * * * * * * * * * * * * * * * * * * * //

dimensions      [];

internalField   uniform -1;

boundaryField
{
    walls
    {
        type            polyFaces;
    }
    inlet
    {
        type            polyFaces;
    }
    outlet
    {
        type            polyFaces;
    }
    innerCylinder
    {
        type            polyFaces;
    }
    innerCylinder_slave
    {
        type            polyFaces;
    }
    propellerTip
    {
        type            polyFaces;
    }
    nonConformalCyclic_on_innerCylinder
    {
        type            nonConformalPolyFaces;
        patchType       nonConformalCyclic;
        size            30847;
        value           nonuniform List<label> 
30847
(
2010290
2010290
2010290
2010290
2010291
2010291
2010291
2010291
2010292
2010292
2010292
2010292
2010293
2010293
2010293
2010293
2010294
2010294
2010294
2010294
2010295
2010295
2010295
2010295
2010295
2010296
2010296
2010296
2010296
2010297
2010297
2010297
2010297
2010297
2010298
2010298
2010298
2010298
2010299
2010299
2010299
2010299
2010300
2010300
2010300
2010301
2010302
2010303
2010304
2010304
2010304
2010304
2010304
2010305
2010305
2010305
2010305
2010306
2010306
2010306
2010306
2010307
2010308
2010309
2010310
2010311
2010312
2010312
2010312
2010312
2010312
2010312
2010313
2010313
2010313
2010314
2010314
2010314
2010315
2010315
2010315
2010315
2010316
2010316
2010317
2010317
2010318
2010318
2010319
2010319
2010320
2010321
2010321
2010321
2010321
2010322
2010322
2010322
2010322
2010323
2010323
2010323
2010323
2010324
2010324
2010324
2010324
2010324
2010324
2010324
2010325
2010326
2010327
2010327
2010328
2010329
2010330
2010330
2010330
2010330
2010330
2010331
2010331
2010331
2010331
2010332
2010332
2010332
2010332
2010332
2010332
2010332
2010333
2010334
2010335
2010336
2010336
2010336
2010336
2010336
2010336
2010336
2010336
2010336
2010337
2010337
2010337
2010337
2010338
2010338
2010338
2010338
2010339
2010339
2010339
2010339
2010339
2010339
2010339
2010339
2010340
2010340
2010340
2010340
2010341
2010341
2010341
2010341
2010341
2010342
2010342
2010342
2010342
2010343
2010344
2010344
2010344
2010345
2010346
2010347
2010347
2010348
2010348
2010349
2010349
2010350
2010350
2010351
2010351
2010352
2010353
2010353
2010353
2010354
2010354
2010355
2010355
2010355
2010355
2010355
2010356
2010356
2010356
2010356
2010356
2010357
2010357
2010357
2010357
2010357
2010357
2010358
2010358
2010358
2010358
2010358
2010358
2010359
2010360
2010360
2010361
2010362
2010362
2010363
2010364
2010365
2010365
2010366
2010367
2010367
2010367
2010367
2010368
2010368
2010368
2010368
2010369
2010369
2010369
2010369
2010370
2010370
2010370
2010370
2010371
2010371
2010372
2010372
2010373
2010373
2010373
2010373
2010373
2010374
2010374
2010374
2010374
2010375
2010376
2010376
2010377
2010377
2010378
2010378
2010378
2010378
2010379
2010379
2010380
2010380
2010380
2010381
2010381
2010381
2010381
2010381
2010381
2010382
2010382
2010382
2010382
2010382
2010382
2010383
2010383
2010383
2010383
2010384
2010384
2010384
2010384
2010384
2010384
2010385
2010385
2010385
2010385
2010385
2010386
2010386
2010386
2010386
2010386
2010387
2010387
2010387
2010387
2010388
2010388
2010389
2010389
2010389
2010389
2010390
2010391
2010392
2010393
2010394
2010394
2010395
2010396
2010397
2010397
2010397
2010398
2010398
2010398
2010398
2010399
2010399
2010399
2010399
2010399
2010399
2010400
2010400
2010400
2010400
2010400
2010400
2010401
2010401
2010401
2010401
2010401
2010401
2010401
2010402
2010403
2010404
2010405
2010406
2010406
2010407
2010408
2010408
2010409
2010409
2010409
2010409
2010410
2010410
2010410
2010410
2010411
2010411
2010411
2010411
2010412
2010413
2010414
2010415
2010416
2010417
2010417
2010417
2010417
2010417
2010418
2010418
2010418
2010418
2010418
2010419
2010419
2010419
2010419
2010419
2010420
2010420
2010420
2010420
2010421
2010421
2010421
2010421
2010422
2010422
2010422
2010422
2010422
2010423
2010423
2010423
2010423
2010424
2010424
2010424
2010424
2010425
2010425
2010425
2010425
2010426
2010426
2010426
2010426
2010427
2010427
2010427
2010427
2010427
2010427
2010428
2010428
2010428
2010428
2010429
2010429
2010429
2010429
2010430
2010431
2010431
2010432
2010433
2010433
2010433
2010433
2010433
2010434
2010434
2010435
2010436
2010437
2010438
2010439
2010440
2010441
2010442
2010442
2010443
2010444
2010444
2010445
2010446
2010447
2010448
2010449
2010449
2010450
2010450
2010451
2010452
2010453
2010454
2010455
2010455
2010455
2010455
2010456
2010456
2010456
2010456
2010456
2010457
2010457
2010457
2010457
2010458
2010458
2010458
2010458
2010459
2010459
2010459
2010459
2010459
2010459
2010460
2010460
2010460
2010460
2010461
2010461
2010461
2010461
2010462
2010462
2010462
2010462
2010463
2010463
2010463
2010463
2010464
2010464
2010464
2010464
2010465
2010465
2010465
2010465
2010466
2010466
2010466
2010466
2010467
2010467
2010467
2010467
2010468
2010468
2010468
2010468
2010469
2010469
2010469
2010469
2010469
2010469
2010470
2010470
2010470
2010470
2010471
2010471
2010471
2010471
2010472
2010472
2010472
2010472
2010473
2010473
2010473
2010473
2010474
2010474
2010474
2010474
2010475
2010476
2010477
2010478
2010479
2010480
2010481
2010481
2010482
2010483
2010484
2010484
2010484
2010484
2010485
2010485
2010485
2010485
2010485
2010485
2010486
2010486
2010486
2010486
2010486
2010486
2010487
2010487
2010487
2010487
2010488
2010488
2010488
2010488
2010488
2010489
2010489
2010490
2010490
2010490
2010490
2010491
2010491
2010491
2010491
2010491
2010492
2010492
2010493
2010494
2010495
2010496
2010497
2010498
2010499
2010500
2010501
2010502
2010503
2010503
2010504
2010505
2010506
2010507
2010508
2010509
2010510
2010511
2010511
2010511
2010511
2010512
2010512
2010512
2010512
2010513
2010513
2010513
2010513
2010514
2010514
2010514
2010515
2010515
2010516
2010516
2010516
2010516
2010516
2010517
2010517
2010517
2010517
2010518
2010518
2010518
2010518
2010519
2010519
2010519
2010519
2010520
2010520
2010520
2010520
2010521
2010521
2010521
2010521
2010522
2010522
2010523
2010523
2010523
2010524
2010525
2010525
2010526
2010527
2010528
2010528
2010529
2010530
2010531
2010532
2010532
2010533
2010534
2010534
2010535
2010536
2010537
2010538
2010539
2010540
2010540
2010540
2010540
2010541
2010541
2010541
2010541
2010542
2010542
2010542
2010542
2010543
2010543
2010543
2010543
2010543
2010543
2010544
2010544
2010544
2010544
2010545
2010545
2010545
2010545
2010545
2010545
2010546
2010546
2010546
2010546
2010547
2010548
2010549
2010550
2010551
2010551
2010552
2010553
2010554
2010555
2010556
2010556
2010557
2010558
2010558
2010558
2010558
2010558
2010559
2010559
2010559
2010559
2010560
2010560
2010560
2010560
2010561
2010561
2010561
2010561
2010561
2010561
2010562
2010562
2010562
2010562
2010562
2010562
2010563
2010563
2010563
2010563
2010564
2010564
2010564
2010564
2010564
2010564
2010565
2010565
2010565
2010565
2010565
2010565
2010566
2010566
2010566
2010566
2010567
2010567
2010567
2010567
2010567
2010567
2010568
2010569
2010570
2010571
2010571
2010571
2010572
2010573
2010574
2010575
2010575
2010576
2010577
2010578
2010579
2010580
2010581
2010582
2010583
2010584
2010584
2010585
2010586
2010587
2010588
2010589
2010590
2010590
2010591
2010592
2010592
2010593
2010594
2010595
2010596
2010597
2010598
2010599
2010599
2010600
2010601
2010602
2010602
2010603
2010604
2010604
2010605
2010605
2010606
2010606
2010606
2010606
2010607
2010607
2010607
2010607
2010607
2010607
2010607
2010608
2010608
2010608
2010608
2010608
2010608
2010609
2010609
2010609
2010609
2010610
2010610
2010610
2010610
2010611
2010611
2010611
2010611
2010612
2010612
2010613
2010613
2010614
2010614
2010614
2010614
2010615
2010615
2010615
2010615
2010615
2010615
2010615
2010615
2010616
2010616
2010616
2010616
2010616
2010616
2010617
2010617
2010617
2010617
2010618
2010618
2010618
2010618
2010619
2010619
2010619
2010619
2010620
2010620
2010621
2010622
2010623
2010623
2010624
2010625
2010626
2010627
2010628
2010629
2010629
2010630
2010631
2010632
2010633
2010634
2010635
2010636
2010637
2010638
2010639
2010639
2010640
2010641
2010642
2010643
2010644
2010644
2010645
2010646
2010647
2010647
2010647
2010647
2010648
2010648
2010648
2010648
2010649
2010649
2010649
2010649
2010650
2010650
2010650
2010651
2010651
2010652
2010652
2010653
2010653
2010654
2010654
2010654
2010654
2010654
2010654
2010654
2010654
2010655
2010655
2010655
2010655
2010656
2010656
2010656
2010656
2010656
2010656
2010657
2010657
2010657
2010657
2010657
2010657
2010658
2010658
2010658
2010658
2010659
2010659
2010659
2010659
2010660
2010660
2010660
2010661
2010661
2010662
2010662
2010663
2010663
2010664
2010664
2010664
2010665
2010665
2010665
2010665
2010666
2010666
2010666
2010666
2010666
2010666
2010667
2010667
2010668
2010668
2010669
2010669
2010669
2010669
2010670
2010670
2010670
2010670
2010671
2010671
2010671
2010671
2010671
2010671
2010672
2010672
2010672
2010672
2010672
2010673
2010673
2010673
2010673
2010674
2010674
2010674
2010674
2010675
2010675
2010675
2010675
2010676
2010676
2010676
2010676
2010676
2010677
2010677
2010677
2010677
2010677
2010678
2010678
2010678
2010678
2010679
2010679
2010679
2010679
2010680
2010680
2010680
2010680
2010681
2010682
2010683
2010684
2010685
2010685
2010686
2010687
2010687
2010688
2010689
2010690
2010691
2010691
2010692
2010693
2010693
2010694
2010695
2010696
2010696
2010697
2010697
2010698
2010699
2010699
2010699
2010700
2010700
2010700
2010700
2010700
2010701
2010701
2010701
2010701
2010701
2010702
2010702
2010703
2010703
2010704
2010704
2010704
2010704
2010705
2010705
2010705
2010705
2010705
2010705
2010706
2010706
2010706
2010706
2010707
2010707
2010707
2010707
2010708
2010708
2010708
2010708
2010709
2010709
2010709
2010709
2010709
2010709
2010710
2010710
2010710
2010710
2010710
2010710
2010711
2010711
2010711
2010712
2010712
2010712
2010712
2010713
2010713
2010713
2010713
2010714
2010714
2010714
2010714
2010714
2010714
2010715
2010715
2010715
2010715
2010716
2010716
2010716
2010716
2010716
2010716
2010717
2010717
2010717
2010717
2010718
2010718
2010718
2010718
2010718
2010719
2010719
2010719
2010719
2010720
2010720
2010720
2010720
2010720
2010721
2010721
2010721
2010721
2010722
2010722
2010723
2010723
2010723
2010723
2010724
2010724
2010724
2010724
2010724
2010725
2010725
2010725
2010725
2010725
2010726
2010726
2010727
2010727
2010727
2010728
2010728
2010728
2010728
2010729
2010729
2010729
2010729
2010729
2010729
2010730
2010730
2010731
2010731
2010732
2010732
2010733
2010734
2010735
2010736
2010737
2010738
2010739
2010740
2010741
2010742
2010743
2010744
2010745
2010746
2010747
2010748
2010749
2010750
2010750
2010751
2010751
2010752
2010753
2010754
2010755
2010756
2010756
2010757
2010758
2010759
2010759
2010759
2010759
2010760
2010760
2010760
2010760
2010761
2010761
2010761
2010762
2010762
2010762
2010762
2010763
2010763
2010763
2010763
2010764
2010764
2010764
2010764
2010765
2010765
2010765
2010765
2010766
2010766
2010766
2010766
2010767
2010767
2010767
2010767
2010768
2010769
2010769
2010769
2010769
2010769
2010770
2010770
2010770
2010771
2010771
2010771
2010771
2010771
2010772
2010772
2010773
2010773
2010774
2010774
2010775
2010775
2010775
2010775
2010776
2010777
2010777
2010777
2010777
2010778
2010778
2010779
2010779
2010779
2010779
2010780
2010780
2010780
2010780
2010780
2010781
2010781
2010782
2010783
2010783
2010783
2010783
2010783
2010783
2010784
2010785
2010786
2010787
2010788
2010789
2010790
2010791
2010792
2010793
2010794
2010795
2010796
2010797
2010798
2010799
2010800
2010801
2010802
2010802
2010802
2010802
2010803
2010803
2010803
2010803
2010804
2010804
2010804
2010804
2010805
2010805
2010805
2010805
2010806
2010806
2010806
2010806
2010806
2010806
2010807
2010807
2010807
2010807
2010807
2010807
2010808
2010808
2010808
2010808
2010809
2010809
2010809
2010809
2010810
2010810
2010810
2010810
2010811
2010812
2010813
2010814
2010814
2010815
2010816
2010817
2010818
2010819
2010820
2010821
2010822
2010823
2010824
2010825
2010826
2010827
2010828
2010829
2010829
2010830
2010830
2010830
2010830
2010831
2010831
2010831
2010831
2010832
2010833
2010833
2010833
2010833
2010834
2010834
2010834
2010834
2010834
2010835
2010835
2010835
2010835
2010836
2010836
2010836
2010836
2010837
2010837
2010837
2010837
2010838
2010838
2010838
2010838
2010839
2010839
2010839
2010839
2010839
2010839
2010840
2010840
2010840
2010840
2010840
2010840
2010841
2010841
2010841
2010841
2010841
2010842
2010842
2010842
2010842
2010843
2010843
2010843
2010843
2010844
2010844
2010844
2010844
2010845
2010845
2010845
2010845
2010846
2010846
2010846
2010846
2010847
2010847
2010847
2010847
2010848
2010848
2010848
2010848
2010848
2010848
2010849
2010849
2010849
2010849
2010849
2010849
2010850
2010850
2010850
2010850
2010851
2010851
2010851
2010851
2010852
2010852
2010852
2010852
2010853
2010853
2010853
2010853
2010854
2010854
2010854
2010854
2010855
2010855
2010855
2010855
2010856
2010856
2010856
2010856
2010856
2010856
2010857
2010857
2010857
2010857
2010858
2010858
2010858
2010858
2010859
2010859
2010859
2010859
2010860
2010860
2010860
2010860
2010860
2010860
2010861
2010861
2010861
2010861
2010861
2010861
2010862
2010862
2010862
2010862
2010863
2010863
2010863
2010863
2010864
2010864
2010864
2010864
2010865
2010866
2010867
2010868
2010869
2010869
2010870
2010871
2010872
2010873
2010874
2010874
2010874
2010874
2010874
2010874
2010875
2010875
2010875
2010875
2010876
2010876
2010876
2010876
2010877
2010877
2010877
2010877
2010878
2010878
2010878
2010878
2010879
2010879
2010879
2010879
2010880
2010880
2010880
2010880
2010880
2010880
2010881
2010881
2010881
2010881
2010881
2010882
2010882
2010882
2010882
2010883
2010883
2010883
2010883
2010884
2010884
2010884
2010884
2010885
2010885
2010886
2010886
2010886
2010886
2010887
2010887
2010888
2010889
2010890
2010890
2010891
2010892
2010893
2010894
2010895
2010896
2010897
2010898
2010899
2010900
2010901
2010902
2010903
2010904
2010905
2010905
2010906
2010907
2010908
2010909
2010910
2010911
2010912
2010913
2010914
2010915
2010915
2010915
2010915
2010916
2010916
2010916
2010916
2010916
2010916
2010917
2010917
2010917
2010917
2010918
2010918
2010918
2010918
2010919
2010919
2010919
2010919
2010920
2010920
2010920
2010920
2010920
2010920
2010921
2010921
2010921
2010921
2010922
2010922
2010922
2010922
2010923
2010923
2010923
2010923
2010923
2010923
2010924
2010924
2010924
2010924
2010924
2010925
2010925
2010925
2010925
2010926
2010926
2010926
2010926
2010927
2010927
2010927
2010927
2010928
2010929
2010930
2010931
2010931
2010932
2010933
2010934
2010935
2010936
2010937
2010938
2010939
2010940
2010940
2010941
2010942
2010943
2010944
2010945
2010946
2010947
2010948
2010949
2010949
2010950
2010951
2010952
2010953
2010954
2010955
2010955
2010956
2010957
2010958
2010959
2010960
2010961
2010962
2010963
2010964
2010964
2010964
2010964
2010965
2010965
2010965
2010965
2010966
2010966
2010966
2010966
2010967
2010967
2010967
2010967
2010967
2010968
2010968
2010968
2010968
2010969
2010969
2010969
2010969
2010970
2010970
2010970
2010970
2010971
2010971
2010971
2010971
2010972
2010972
2010972
2010972
2010973
2010973
2010973
2010973
2010974
2010974
2010974
2010974
2010975
2010975
2010975
2010975
2010976
2010976
2010976
2010976
2010976
2010976
2010977
2010977
2010977
2010977
2010978
2010978
2010978
2010978
2010979
2010979
2010979
2010979
2010980
2010980
2010980
2010980
2010981
2010981
2010981
2010981
2010982
2010982
2010982
2010982
2010983
2010983
2010983
2010983
2010984
2010984
2010984
2010984
2010985
2010985
2010985
2010985
2010986
2010986
2010986
2010986
2010987
2010987
2010987
2010987
2010988
2010988
2010988
2010988
2010989
2010989
2010989
2010989
2010990
2010990
2010990
2010990
2010991
2010991
2010991
2010991
2010992
2010992
2010992
2010992
2010993
2010993
2010993
2010993
2010994
2010994
2010994
2010994
2010995
2010995
2010995
2010995
2010996
2010996
2010996
2010996
2010997
2010997
2010997
2010997
2010998
2010998
2010998
2010998
2010999
2010999
2010999
2010999
2011000
2011000
2011000
2011000
2011001
2011001
2011001
2011001
2011001
2011002
2011002
2011002
2011002
2011002
2011002
2011002
2011003
2011004
2011004
2011004
2011004
2011004
2011005
2011005
2011005
2011005
2011006
2011006
2011007
2011007
2011007
2011007
2011008
2011008
2011008
2011008
2011009
2011009
2011009
2011009
2011009
2011010
2011010
2011010
2011010
2011011
2011011
2011011
2011011
2011012
2011012
2011012
2011012
2011013
2011013
2011013
2011014
2011014
2011014
2011014
2011014
2011015
2011015
2011015
2011015
2011015
2011015
2011016
2011016
2011016
2011016
2011017
2011017
2011017
2011017
2011017
2011017
2011018
2011018
2011018
2011019
2011019
2011020
2011020
2011020
2011020
2011021
2011021
2011021
2011021
2011022
2011022
2011022
2011022
2011023
2011023
2011023
2011023
2011024
2011024
2011025
2011025
2011025
2011025
2011026
2011026
2011026
2011026
2011027
2011027
2011027
2011027
2011028
2011028
2011028
2011028
2011029
2011029
2011029
2011029
2011030
2011030
2011030
2011030
2011031
2011031
2011031
2011031
2011032
2011032
2011033
2011034
2011035
2011035
2011036
2011037
2011038
2011038
2011038
2011038
2011039
2011039
2011040
2011040
2011040
2011040
2011041
2011041
2011041
2011041
2011042
2011042
2011042
2011042
2011043
2011043
2011043
2011043
2011044
2011044
2011044
2011044
2011044
2011044
2011044
2011045
2011045
2011045
2011045
2011046
2011046
2011046
2011046
2011046
2011047
2011047
2011047
2011047
2011048
2011048
2011048
2011048
2011049
2011049
2011049
2011049
2011049
2011049
2011049
2011050
2011050
2011050
2011050
2011051
2011051
2011051
2011051
2011052
2011052
2011052
2011052
2011053
2011053
2011053
2011053
2011054
2011055
2011056
2011057
2011058
2011059
2011060
2011060
2011061
2011062
2011063
2011064
2011065
2011066
2011066
2011066
2011066
2011067
2011068
2011068
2011068
2011068
2011068
2011069
2011069
2011069
2011069
2011069
2011070
2011070
2011070
2011071
2011071
2011071
2011071
2011072
2011072
2011072
2011072
2011073
2011073
2011073
2011073
2011074
2011074
2011074
2011074
2011075
2011075
2011075
2011075
2011076
2011076
2011076
2011076
2011077
2011077
2011077
2011077
2011077
2011077
2011078
2011078
2011078
2011078
2011078
2011078
2011078
2011079
2011079
2011079
2011079
2011080
2011080
2011080
2011081
2011081
2011081
2011081
2011082
2011083
2011084
2011085
2011086
2011087
2011088
2011089
2011090
2011091
2011092
2011093
2011094
2011095
2011096
2011097
2011097
2011097
2011097
2011097
2011098
2011098
2011098
2011098
2011099
2011099
2011099
2011099
2011099
2011099
2011100
2011100
2011100
2011100
2011101
2011101
2011102
2011103
2011104
2011105
2011106
2011107
2011107
2011108
2011109
2011109
2011110
2011111
2011112
2011113
2011114
2011115
2011116
2011117
2011118
2011118
2011118
2011118
2011118
2011118
2011119
2011119
2011119
2011119
2011119
2011119
2011120
2011120
2011120
2011120
2011120
2011121
2011121
2011122
2011122
2011122
2011122
2011122
2011122
2011123
2011123
2011123
2011123
2011124
2011124
2011124
2011124
2011125
2011125
2011126
2011126
2011126
2011126
2011127
2011127
2011127
2011127
2011128
2011128
2011128
2011129
2011129
2011129
2011129
2011130
2011130
2011131
2011132
2011133
2011134
2011134
2011135
2011136
2011137
2011137
2011138
2011139
2011140
2011140
2011140
2011140
2011140
2011141
2011141
2011141
2011141
2011142
2011142
2011142
2011142
2011143
2011143
2011143
2011143
2011144
2011144
2011144
2011144
2011145
2011145
2011145
2011145
2011145
2011146
2011146
2011147
2011147
2011147
2011147
2011147
2011147
2011148
2011148
2011148
2011149
2011149
2011149
2011149
2011150
2011150
2011150
2011150
2011151
2011151
2011151
2011152
2011152
2011152
2011153
2011153
2011153
2011153
2011154
2011155
2011156
2011157
2011157
2011158
2011159
2011160
2011160
2011161
2011161
2011162
2011162
2011162
2011162
2011163
2011163
2011163
2011163
2011163
2011164
2011164
2011165
2011165
2011165
2011165
2011166
2011166
2011166
2011166
2011166
2011167
2011168
2011169
2011170
2011171
2011172
2011173
2011174
2011174
2011175
2011176
2011177
2011178
2011179
2011180
2011181
2011182
2011182
2011182
2011182
2011183
2011183
2011183
2011183
2011184
2011184
2011184
2011184
2011185
2011185
2011185
2011185
2011185
2011185
2011186
2011186
2011186
2011186
2011187
2011187
2011187
2011188
2011188
2011188
2011188
2011189
2011190
2011190
2011190
2011190
2011191
2011191
2011191
2011191
2011191
2011192
2011193
2011194
2011195
2011196
2011197
2011198
2011199
2011199
2011200
2011200
2011200
2011200
2011200
2011201
2011201
2011201
2011201
2011202
2011202
2011202
2011202
2011203
2011203
2011203
2011203
2011204
2011204
2011204
2011204
2011204
2011205
2011205
2011205
2011205
2011206
2011206
2011206
2011206
2011207
2011207
2011207
2011207
2011207
2011207
2011208
2011208
2011208
2011208
2011209
2011209
2011209
2011209
2011210
2011210
2011210
2011210
2011211
2011211
2011211
2011211
2011212
2011212
2011212
2011212
2011212
2011213
2011213
2011213
2011213
2011214
2011214
2011214
2011214
2011215
2011215
2011215
2011215
2011216
2011216
2011216
2011216
2011217
2011217
2011217
2011217
2011218
2011218
2011218
2011218
2011219
2011219
2011219
2011219
2011220
2011220
2011220
2011220
2011221
2011221
2011221
2011221
2011222
2011222
2011222
2011222
2011223
2011223
2011223
2011224
2011224
2011224
2011224
2011225
2011225
2011225
2011225
2011225
2011225
2011225
2011226
2011226
2011226
2011226
2011226
2011226
2011227
2011227
2011227
2011227
2011228
2011228
2011228
2011228
2011228
2011229
2011229
2011229
2011229
2011230
2011230
2011230
2011230
2011231
2011231
2011231
2011231
2011232
2011232
2011232
2011232
2011232
2011232
2011233
2011233
2011233
2011233
2011234
2011234
2011234
2011235
2011236
2011237
2011238
2011238
2011238
2011238
2011239
2011239
2011239
2011240
2011240
2011241
2011242
2011242
2011243
2011244
2011245
2011246
2011247
2011248
2011248
2011249
2011250
2011251
2011251
2011252
2011253
2011254
2011255
2011256
2011257
2011258
2011259
2011259
2011260
2011261
2011262
2011262
2011262
2011262
2011263
2011263
2011263
2011263
2011264
2011264
2011264
2011264
2011265
2011265
2011265
2011265
2011266
2011266
2011266
2011266
2011267
2011267
2011267
2011267
2011268
2011268
2011268
2011268
2011269
2011269
2011269
2011269
2011269
2011269
2011270
2011270
2011270
2011270
2011271
2011271
2011272
2011273
2011274
2011275
2011276
2011277
2011277
2011278
2011279
2011280
2011281
2011282
2011283
2011284
2011285
2011286
2011287
2011287
2011287
2011287
2011288
2011288
2011289
2011290
2011291
2011292
2011292
2011293
2011293
2011293
2011293
2011294
2011295
2011295
2011295
2011295
2011296
2011296
2011296
2011296
2011297
2011297
2011297
2011297
2011298
2011298
2011298
2011298
2011299
2011299
2011299
2011299
2011300
2011300
2011300
2011300
2011301
2011301
2011301
2011301
2011302
2011302
2011302
2011302
2011303
2011303
2011303
2011303
2011304
2011304
2011304
2011304
2011305
2011305
2011305
2011305
2011306
2011306
2011306
2011306
2011306
2011307
2011307
2011307
2011307
2011308
2011308
2011308
2011308
2011309
2011309
2011309
2011309
2011310
2011310
2011311
2011311
2011311
2011311
2011311
2011312
2011312
2011312
2011312
2011313
2011313
2011313
2011313
2011314
2011314
2011314
2011314
2011315
2011315
2011315
2011315
2011316
2011316
2011316
2011316
2011316
2011317
2011317
2011317
2011317
2011317
2011318
2011319
2011320
2011321
2011321
2011322
2011323
2011324
2011325
2011326
2011327
2011327
2011327
2011327
2011328
2011328
2011329
2011330
2011330
2011331
2011332
2011333
2011333
2011334
2011334
2011334
2011334
2011334
2011335
2011335
2011336
2011336
2011336
2011336
2011337
2011337
2011337
2011337
2011337
2011337
2011338
2011338
2011338
2011338
2011338
2011338
2011339
2011339
2011339
2011339
2011340
2011340
2011340
2011340
2011340
2011341
2011341
2011341
2011341
2011341
2011341
2011342
2011342
2011342
2011342
2011343
2011343
2011343
2011344
2011344
2011344
2011344
2011345
2011345
2011345
2011345
2011345
2011345
2011346
2011346
2011346
2011346
2011346
2011346
2011347
2011347
2011347
2011347
2011348
2011348
2011348
2011348
2011349
2011350
2011351
2011352
2011353
2011354
2011354
2011355
2011355
2011356
2011357
2011358
2011358
2011359
2011359
2011360
2011361
2011361
2011361
2011361
2011361
2011362
2011362
2011362
2011362
2011363
2011363
2011363
2011363
2011363
2011364
2011364
2011364
2011364
2011365
2011365
2011365
2011365
2011365
2011365
2011366
2011366
2011366
2011366
2011366
2011366
2011366
2011367
2011367
2011367
2011367
2011368
2011368
2011368
2011368
2011368
2011369
2011369
2011369
2011369
2011370
2011370
2011370
2011370
2011371
2011371
2011372
2011373
2011374
2011374
2011374
2011375
2011375
2011375
2011375
2011376
2011376
2011376
2011376
2011377
2011378
2011379
2011380
2011381
2011382
2011383
2011384
2011385
2011386
2011387
2011388
2011389
2011390
2011390
2011391
2011392
2011393
2011394
2011395
2011395
2011396
2011397
2011398
2011398
2011398
2011398
2011399
2011399
2011399
2011399
2011400
2011400
2011400
2011400
2011401
2011401
2011401
2011401
2011402
2011402
2011402
2011402
2011402
2011403
2011403
2011403
2011403
2011403
2011403
2011404
2011404
2011404
2011404
2011405
2011405
2011405
2011405
2011405
2011405
2011406
2011406
2011406
2011406
2011406
2011406
2011407
2011407
2011407
2011407
2011408
2011409
2011409
2011410
2011410
2011411
2011412
2011413
2011414
2011415
2011416
2011417
2011417
2011418
2011419
2011419
2011420
2011420
2011420
2011420
2011420
2011421
2011421
2011421
2011421
2011421
2011422
2011422
2011422
2011422
2011422
2011422
2011423
2011423
2011423
2011424
2011424
2011424
2011424
2011424
2011425
2011425
2011425
2011425
2011425
2011425
2011426
2011427
2011428
2011429
2011430
2011431
2011432
2011433
2011434
2011435
2011436
2011437
2011438
2011439
2011439
2011440
2011441
2011442
2011443
2011444
2011445
2011446
2011447
2011448
2011449
2011450
2011450
2011451
2011452
2011452
2011453
2011454
2011454
2011455
2011456
2011456
2011456
2011457
2011457
2011458
2011458
2011459
2011460
2011460
2011460
2011460
2011461
2011461
2011462
2011463
2011464
2011465
2011465
2011466
2011467
2011467
2011467
2011467
2011468
2011468
2011469
2011469
2011470
2011470
2011470
2011470
2011471
2011472
2011473
2011473
2011474
2011475
2011476
2011476
2011477
2011478
2011478
2011478
2011478
2011479
2011480
2011481
2011482
2011483
2011484
2011484
2011485
2011486
2011487
2011488
2011489
2011490
2011490
2011491
2011492
2011493
2011494
2011495
2011496
2011497
2011498
2011498
2011499
2011500
2011501
2011502
2011503
2011504
2011505
2011506
2011507
2011508
2011509
2011510
2011511
2011511
2011512
2011513
2011513
2011513
2011513
2011513
2011514
2011514
2011514
2011514
2011515
2011515
2011515
2011515
2011515
2011516
2011516
2011516
2011516
2011516
2011517
2011517
2011517
2011517
2011518
2011518
2011518
2011518
2011518
2011518
2011519
2011519
2011519
2011519
2011520
2011520
2011520
2011520
2011521
2011521
2011521
2011521
2011522
2011523
2011524
2011525
2011526
2011526
2011527
2011528
2011529
2011530
2011531
2011531
2011531
2011531
2011531
2011531
2011532
2011532
2011532
2011532
2011533
2011533
2011533
2011533
2011534
2011534
2011534
2011534
2011535
2011535
2011535
2011535
2011536
2011537
2011538
2011539
2011540
2011541
2011541
2011542
2011542
2011543
2011544
2011545
2011545
2011546
2011546
2011547
2011548
2011548
2011548
2011548
2011548
2011549
2011549
2011549
2011549
2011549
2011550
2011550
2011550
2011550
2011550
2011551
2011551
2011551
2011552
2011552
2011553
2011553
2011553
2011553
2011554
2011554
2011554
2011554
2011555
2011555
2011555
2011555
2011556
2011556
2011556
2011556
2011557
2011557
2011557
2011558
2011558
2011558
2011558
2011559
2011559
2011559
2011559
2011560
2011560
2011560
2011561
2011561
2011561
2011561
2011562
2011562
2011562
2011562
2011563
2011563
2011563
2011564
2011564
2011564
2011565
2011565
2011565
2011565
2011566
2011566
2011566
2011566
2011566
2011567
2011567
2011567
2011567
2011567
2011567
2011567
2011568
2011568
2011568
2011568
2011568
2011568
2011568
2011569
2011569
2011569
2011569
2011570
2011570
2011570
2011570
2011570
2011570
2011571
2011571
2011571
2011571
2011572
2011572
2011572
2011572
2011572
2011573
2011574
2011575
2011576
2011577
2011578
2011579
2011579
2011580
2011581
2011582
2011582
2011582
2011582
2011583
2011583
2011583
2011583
2011584
2011584
2011584
2011584
2011584
2011584
2011585
2011585
2011585
2011585
2011586
2011586
2011586
2011586
2011587
2011587
2011587
2011587
2011588
2011588
2011588
2011588
2011589
2011589
2011589
2011589
2011590
2011590
2011590
2011590
2011591
2011591
2011591
2011591
2011592
2011592
2011592
2011592
2011593
2011593
2011593
2011593
2011594
2011594
2011594
2011594
2011595
2011595
2011595
2011595
2011596
2011596
2011596
2011596
2011597
2011597
2011597
2011597
2011598
2011598
2011598
2011598
2011598
2011598
2011599
2011599
2011599
2011599
2011599
2011599
2011600
2011600
2011600
2011600
2011601
2011601
2011601
2011601
2011602
2011602
2011602
2011602
2011603
2011603
2011603
2011603
2011603
2011603
2011603
2011604
2011604
2011604
2011604
2011604
2011604
2011605
2011605
2011605
2011605
2011606
2011606
2011606
2011606
2011606
2011606
2011607
2011607
2011607
2011607
2011608
2011608
2011608
2011608
2011609
2011609
2011609
2011609
2011610
2011610
2011610
2011610
2011611
2011611
2011611
2011611
2011612
2011612
2011612
2011612
2011612
2011613
2011613
2011613
2011613
2011614
2011614
2011614
2011614
2011614
2011614
2011615
2011615
2011615
2011615
2011616
2011616
2011616
2011616
2011617
2011617
2011617
2011617
2011618
2011618
2011618
2011618
2011619
2011619
2011619
2011619
2011620
2011620
2011620
2011620
2011621